
---------- Begin Simulation Statistics ----------
simSeconds                                   0.016819                       # Number of seconds simulated (Second)
simTicks                                  16819057000                       # Number of ticks simulated (Tick)
finalTick                                 16819057000                       # Number of ticks from beginning of simulation (restored from checkpoints and never reset) (Tick)
simFreq                                  1000000000000                       # The number of ticks per simulated second ((Tick/Second))
hostSeconds                                      0.60                       # Real time elapsed on the host (Second)
hostTickRate                              28191324564                       # The number of ticks simulated per host second (ticks/s) ((Tick/Second))
hostMemory                                     662436                       # Number of bytes of host memory used (Byte)
simInsts                                       238356                       # Number of instructions simulated (Count)
simOps                                         238356                       # Number of ops (including micro ops) simulated (Count)
hostInstRate                                   399422                       # Simulator instruction rate (inst/s) ((Count/Second))
hostOpRate                                     399415                       # Simulator op (including micro ops) rate (op/s) ((Count/Second))
system.clk_domain.clock                          1000                       # Clock period in ticks (Tick)
system.clk_domain.voltage_domain.voltage            1                       # Voltage in Volts (Volt)
system.cpu.numCycles                         16819057                       # Number of cpu cycles simulated (Cycle)
system.cpu.cpi                              70.562759                       # CPI: cycles per instruction (core level) ((Cycle/Count))
system.cpu.ipc                               0.014172                       # IPC: instructions per cycle (core level) ((Count/Cycle))
system.cpu.numWorkItemsStarted                      0                       # Number of work items this cpu started (Count)
system.cpu.numWorkItemsCompleted                    0                       # Number of work items this cpu completed (Count)
system.cpu.issuedInstType_0::No_OpClass             0      0.00%      0.00% # Number of insts issued per FU, per thread (Count)
system.cpu.issuedInstType_0::IntAlu            121014     50.77%     50.77% # Number of insts issued per FU, per thread (Count)
system.cpu.issuedInstType_0::IntMult                7      0.00%     50.77% # Number of insts issued per FU, per thread (Count)
system.cpu.issuedInstType_0::IntDiv                 2      0.00%     50.77% # Number of insts issued per FU, per thread (Count)
system.cpu.issuedInstType_0::FloatAdd               0      0.00%     50.77% # Number of insts issued per FU, per thread (Count)
system.cpu.issuedInstType_0::FloatCmp               0      0.00%     50.77% # Number of insts issued per FU, per thread (Count)
system.cpu.issuedInstType_0::FloatCvt               0      0.00%     50.77% # Number of insts issued per FU, per thread (Count)
system.cpu.issuedInstType_0::FloatMult              0      0.00%     50.77% # Number of insts issued per FU, per thread (Count)
system.cpu.issuedInstType_0::FloatMultAcc            0      0.00%     50.77% # Number of insts issued per FU, per thread (Count)
system.cpu.issuedInstType_0::FloatDiv               0      0.00%     50.77% # Number of insts issued per FU, per thread (Count)
system.cpu.issuedInstType_0::FloatMisc              0      0.00%     50.77% # Number of insts issued per FU, per thread (Count)
system.cpu.issuedInstType_0::FloatSqrt              0      0.00%     50.77% # Number of insts issued per FU, per thread (Count)
system.cpu.issuedInstType_0::SimdAdd             1024      0.43%     51.20% # Number of insts issued per FU, per thread (Count)
system.cpu.issuedInstType_0::SimdAddAcc             0      0.00%     51.20% # Number of insts issued per FU, per thread (Count)
system.cpu.issuedInstType_0::SimdAlu                0      0.00%     51.20% # Number of insts issued per FU, per thread (Count)
system.cpu.issuedInstType_0::SimdCmp                0      0.00%     51.20% # Number of insts issued per FU, per thread (Count)
system.cpu.issuedInstType_0::SimdCvt                0      0.00%     51.20% # Number of insts issued per FU, per thread (Count)
system.cpu.issuedInstType_0::SimdMisc             518      0.22%     51.42% # Number of insts issued per FU, per thread (Count)
system.cpu.issuedInstType_0::SimdMult            1536      0.64%     52.07% # Number of insts issued per FU, per thread (Count)
system.cpu.issuedInstType_0::SimdMultAcc         1024      0.43%     52.50% # Number of insts issued per FU, per thread (Count)
system.cpu.issuedInstType_0::SimdMatMultAcc            0      0.00%     52.50% # Number of insts issued per FU, per thread (Count)
system.cpu.issuedInstType_0::SimdShift           1024      0.43%     52.92% # Number of insts issued per FU, per thread (Count)
system.cpu.issuedInstType_0::SimdShiftAcc            0      0.00%     52.92% # Number of insts issued per FU, per thread (Count)
system.cpu.issuedInstType_0::SimdDiv                0      0.00%     52.92% # Number of insts issued per FU, per thread (Count)
system.cpu.issuedInstType_0::SimdSqrt               0      0.00%     52.92% # Number of insts issued per FU, per thread (Count)
system.cpu.issuedInstType_0::SimdFloatAdd         1024      0.43%     53.35% # Number of insts issued per FU, per thread (Count)
system.cpu.issuedInstType_0::SimdFloatAlu            0      0.00%     53.35% # Number of insts issued per FU, per thread (Count)
system.cpu.issuedInstType_0::SimdFloatCmp            0      0.00%     53.35% # Number of insts issued per FU, per thread (Count)
system.cpu.issuedInstType_0::SimdFloatCvt         1024      0.43%     53.78% # Number of insts issued per FU, per thread (Count)
system.cpu.issuedInstType_0::SimdFloatDiv            0      0.00%     53.78% # Number of insts issued per FU, per thread (Count)
system.cpu.issuedInstType_0::SimdFloatMisc            0      0.00%     53.78% # Number of insts issued per FU, per thread (Count)
system.cpu.issuedInstType_0::SimdFloatMult            0      0.00%     53.78% # Number of insts issued per FU, per thread (Count)
system.cpu.issuedInstType_0::SimdFloatMultAcc        32768     13.75%     67.53% # Number of insts issued per FU, per thread (Count)
system.cpu.issuedInstType_0::SimdFloatMatMultAcc            0      0.00%     67.53% # Number of insts issued per FU, per thread (Count)
system.cpu.issuedInstType_0::SimdFloatSqrt            0      0.00%     67.53% # Number of insts issued per FU, per thread (Count)
system.cpu.issuedInstType_0::SimdReduceAdd            0      0.00%     67.53% # Number of insts issued per FU, per thread (Count)
system.cpu.issuedInstType_0::SimdReduceAlu            0      0.00%     67.53% # Number of insts issued per FU, per thread (Count)
system.cpu.issuedInstType_0::SimdReduceCmp            0      0.00%     67.53% # Number of insts issued per FU, per thread (Count)
system.cpu.issuedInstType_0::SimdFloatReduceAdd            0      0.00%     67.53% # Number of insts issued per FU, per thread (Count)
system.cpu.issuedInstType_0::SimdFloatReduceCmp            0      0.00%     67.53% # Number of insts issued per FU, per thread (Count)
system.cpu.issuedInstType_0::SimdAes                0      0.00%     67.53% # Number of insts issued per FU, per thread (Count)
system.cpu.issuedInstType_0::SimdAesMix             0      0.00%     67.53% # Number of insts issued per FU, per thread (Count)
system.cpu.issuedInstType_0::SimdSha1Hash            0      0.00%     67.53% # Number of insts issued per FU, per thread (Count)
system.cpu.issuedInstType_0::SimdSha1Hash2            0      0.00%     67.53% # Number of insts issued per FU, per thread (Count)
system.cpu.issuedInstType_0::SimdSha256Hash            0      0.00%     67.53% # Number of insts issued per FU, per thread (Count)
system.cpu.issuedInstType_0::SimdSha256Hash2            0      0.00%     67.53% # Number of insts issued per FU, per thread (Count)
system.cpu.issuedInstType_0::SimdShaSigma2            0      0.00%     67.53% # Number of insts issued per FU, per thread (Count)
system.cpu.issuedInstType_0::SimdShaSigma3            0      0.00%     67.53% # Number of insts issued per FU, per thread (Count)
system.cpu.issuedInstType_0::SimdSha3               0      0.00%     67.53% # Number of insts issued per FU, per thread (Count)
system.cpu.issuedInstType_0::SimdSm4e               0      0.00%     67.53% # Number of insts issued per FU, per thread (Count)
system.cpu.issuedInstType_0::SimdCrc                0      0.00%     67.53% # Number of insts issued per FU, per thread (Count)
system.cpu.issuedInstType_0::SimdPredAlu            0      0.00%     67.53% # Number of insts issued per FU, per thread (Count)
system.cpu.issuedInstType_0::SimdDotProd            0      0.00%     67.53% # Number of insts issued per FU, per thread (Count)
system.cpu.issuedInstType_0::Matrix                 0      0.00%     67.53% # Number of insts issued per FU, per thread (Count)
system.cpu.issuedInstType_0::MatrixMov              0      0.00%     67.53% # Number of insts issued per FU, per thread (Count)
system.cpu.issuedInstType_0::MatrixOP               0      0.00%     67.53% # Number of insts issued per FU, per thread (Count)
system.cpu.issuedInstType_0::MemRead              466      0.20%     67.73% # Number of insts issued per FU, per thread (Count)
system.cpu.issuedInstType_0::MemWrite            4731      1.98%     69.71% # Number of insts issued per FU, per thread (Count)
system.cpu.issuedInstType_0::FloatMemRead        32769     13.75%     83.46% # Number of insts issued per FU, per thread (Count)
system.cpu.issuedInstType_0::FloatMemWrite            0      0.00%     83.46% # Number of insts issued per FU, per thread (Count)
system.cpu.issuedInstType_0::InstPrefetch            0      0.00%     83.46% # Number of insts issued per FU, per thread (Count)
system.cpu.issuedInstType_0::SimdUnitStrideLoad        33792     14.18%     97.64% # Number of insts issued per FU, per thread (Count)
system.cpu.issuedInstType_0::SimdUnitStrideStore         2048      0.86%     98.50% # Number of insts issued per FU, per thread (Count)
system.cpu.issuedInstType_0::SimdUnitStrideMaskLoad            0      0.00%     98.50% # Number of insts issued per FU, per thread (Count)
system.cpu.issuedInstType_0::SimdUnitStrideMaskStore            0      0.00%     98.50% # Number of insts issued per FU, per thread (Count)
system.cpu.issuedInstType_0::SimdStridedLoad            0      0.00%     98.50% # Number of insts issued per FU, per thread (Count)
system.cpu.issuedInstType_0::SimdStridedStore            0      0.00%     98.50% # Number of insts issued per FU, per thread (Count)
system.cpu.issuedInstType_0::SimdIndexedLoad            0      0.00%     98.50% # Number of insts issued per FU, per thread (Count)
system.cpu.issuedInstType_0::SimdIndexedStore            0      0.00%     98.50% # Number of insts issued per FU, per thread (Count)
system.cpu.issuedInstType_0::SimdWholeRegisterLoad            0      0.00%     98.50% # Number of insts issued per FU, per thread (Count)
system.cpu.issuedInstType_0::SimdWholeRegisterStore            0      0.00%     98.50% # Number of insts issued per FU, per thread (Count)
system.cpu.issuedInstType_0::SimdUnitStrideFaultOnlyFirstLoad            0      0.00%     98.50% # Number of insts issued per FU, per thread (Count)
system.cpu.issuedInstType_0::SimdUnitStrideSegmentedLoad            0      0.00%     98.50% # Number of insts issued per FU, per thread (Count)
system.cpu.issuedInstType_0::SimdUnitStrideSegmentedStore            0      0.00%     98.50% # Number of insts issued per FU, per thread (Count)
system.cpu.issuedInstType_0::SimdUnitStrideSegmentedFaultOnlyFirstLoad            0      0.00%     98.50% # Number of insts issued per FU, per thread (Count)
system.cpu.issuedInstType_0::SimdStrideSegmentedLoad            0      0.00%     98.50% # Number of insts issued per FU, per thread (Count)
system.cpu.issuedInstType_0::SimdStrideSegmentedStore            0      0.00%     98.50% # Number of insts issued per FU, per thread (Count)
system.cpu.issuedInstType_0::SimdExt                0      0.00%     98.50% # Number of insts issued per FU, per thread (Count)
system.cpu.issuedInstType_0::SimdFloatExt            0      0.00%     98.50% # Number of insts issued per FU, per thread (Count)
system.cpu.issuedInstType_0::SimdConfig          3585      1.50%    100.00% # Number of insts issued per FU, per thread (Count)
system.cpu.issuedInstType_0::SimdBf16Add            0      0.00%    100.00% # Number of insts issued per FU, per thread (Count)
system.cpu.issuedInstType_0::SimdBf16Cmp            0      0.00%    100.00% # Number of insts issued per FU, per thread (Count)
system.cpu.issuedInstType_0::SimdBf16Cvt            0      0.00%    100.00% # Number of insts issued per FU, per thread (Count)
system.cpu.issuedInstType_0::SimdBf16DotProd            0      0.00%    100.00% # Number of insts issued per FU, per thread (Count)
system.cpu.issuedInstType_0::SimdBf16MatMultAcc            0      0.00%    100.00% # Number of insts issued per FU, per thread (Count)
system.cpu.issuedInstType_0::SimdBf16Mult            0      0.00%    100.00% # Number of insts issued per FU, per thread (Count)
system.cpu.issuedInstType_0::SimdBf16MultAcc            0      0.00%    100.00% # Number of insts issued per FU, per thread (Count)
system.cpu.issuedInstType_0::Bf16Cvt                0      0.00%    100.00% # Number of insts issued per FU, per thread (Count)
system.cpu.issuedInstType_0::System                 0      0.00%    100.00% # Number of insts issued per FU, per thread (Count)
system.cpu.issuedInstType_0::total             238356                       # Number of insts issued per FU, per thread (Count)
system.cpu.commitStats0.numInsts               238356                       # Number of instructions committed (thread level) (Count)
system.cpu.commitStats0.numOps                 238356                       # Number of ops (including micro ops) committed (thread level) (Count)
system.cpu.commitStats0.numInstsNotNOP         238356                       # Number of instructions committed excluding NOPs or prefetches (Count)
system.cpu.commitStats0.numOpsNotNOP           238356                       # Number of Ops (including micro ops) Simulated (Count)
system.cpu.commitStats0.numUserInsts           238356                       # Numbrer of instructions committed in user mode (Count)
system.cpu.commitStats0.numUserOps             238356                       # Number of ops committed in user mode (Count)
system.cpu.commitStats0.ratioUserInsts              1                       # Ratio of instructions committed in user mode (Ratio)
system.cpu.commitStats0.ratioUserOps                1                       # Ratio of ops committed in user mode (Ratio)
system.cpu.commitStats0.cpi                 70.562759                       # CPI: cycles per instruction (thread level) ((Cycle/Count))
system.cpu.commitStats0.ipc                  0.014172                       # IPC: instructions per cycle (thread level) ((Count/Cycle))
system.cpu.commitStats0.numMemRefs              73806                       # Number of memory references committed (Count)
system.cpu.commitStats0.numFpInsts              32769                       # Number of float instructions (Count)
system.cpu.commitStats0.numIntInsts            162515                       # Number of integer instructions (Count)
system.cpu.commitStats0.numLoadInsts            67027                       # Number of load instructions (Count)
system.cpu.commitStats0.numStoreInsts            6779                       # Number of store instructions (Count)
system.cpu.commitStats0.numVecInsts             79367                       # Number of vector instructions (Count)
system.cpu.commitStats0.committedInstType::No_OpClass            0      0.00%      0.00% # Class of committed instruction. (Count)
system.cpu.commitStats0.committedInstType::IntAlu       121014     50.77%     50.77% # Class of committed instruction. (Count)
system.cpu.commitStats0.committedInstType::IntMult            7      0.00%     50.77% # Class of committed instruction. (Count)
system.cpu.commitStats0.committedInstType::IntDiv            2      0.00%     50.77% # Class of committed instruction. (Count)
system.cpu.commitStats0.committedInstType::FloatAdd            0      0.00%     50.77% # Class of committed instruction. (Count)
system.cpu.commitStats0.committedInstType::FloatCmp            0      0.00%     50.77% # Class of committed instruction. (Count)
system.cpu.commitStats0.committedInstType::FloatCvt            0      0.00%     50.77% # Class of committed instruction. (Count)
system.cpu.commitStats0.committedInstType::FloatMult            0      0.00%     50.77% # Class of committed instruction. (Count)
system.cpu.commitStats0.committedInstType::FloatMultAcc            0      0.00%     50.77% # Class of committed instruction. (Count)
system.cpu.commitStats0.committedInstType::FloatDiv            0      0.00%     50.77% # Class of committed instruction. (Count)
system.cpu.commitStats0.committedInstType::FloatMisc            0      0.00%     50.77% # Class of committed instruction. (Count)
system.cpu.commitStats0.committedInstType::FloatSqrt            0      0.00%     50.77% # Class of committed instruction. (Count)
system.cpu.commitStats0.committedInstType::SimdAdd         1024      0.43%     51.20% # Class of committed instruction. (Count)
system.cpu.commitStats0.committedInstType::SimdAddAcc            0      0.00%     51.20% # Class of committed instruction. (Count)
system.cpu.commitStats0.committedInstType::SimdAlu            0      0.00%     51.20% # Class of committed instruction. (Count)
system.cpu.commitStats0.committedInstType::SimdCmp            0      0.00%     51.20% # Class of committed instruction. (Count)
system.cpu.commitStats0.committedInstType::SimdCvt            0      0.00%     51.20% # Class of committed instruction. (Count)
system.cpu.commitStats0.committedInstType::SimdMisc          518      0.22%     51.42% # Class of committed instruction. (Count)
system.cpu.commitStats0.committedInstType::SimdMult         1536      0.64%     52.07% # Class of committed instruction. (Count)
system.cpu.commitStats0.committedInstType::SimdMultAcc         1024      0.43%     52.50% # Class of committed instruction. (Count)
system.cpu.commitStats0.committedInstType::SimdMatMultAcc            0      0.00%     52.50% # Class of committed instruction. (Count)
system.cpu.commitStats0.committedInstType::SimdShift         1024      0.43%     52.92% # Class of committed instruction. (Count)
system.cpu.commitStats0.committedInstType::SimdShiftAcc            0      0.00%     52.92% # Class of committed instruction. (Count)
system.cpu.commitStats0.committedInstType::SimdDiv            0      0.00%     52.92% # Class of committed instruction. (Count)
system.cpu.commitStats0.committedInstType::SimdSqrt            0      0.00%     52.92% # Class of committed instruction. (Count)
system.cpu.commitStats0.committedInstType::SimdFloatAdd         1024      0.43%     53.35% # Class of committed instruction. (Count)
system.cpu.commitStats0.committedInstType::SimdFloatAlu            0      0.00%     53.35% # Class of committed instruction. (Count)
system.cpu.commitStats0.committedInstType::SimdFloatCmp            0      0.00%     53.35% # Class of committed instruction. (Count)
system.cpu.commitStats0.committedInstType::SimdFloatCvt         1024      0.43%     53.78% # Class of committed instruction. (Count)
system.cpu.commitStats0.committedInstType::SimdFloatDiv            0      0.00%     53.78% # Class of committed instruction. (Count)
system.cpu.commitStats0.committedInstType::SimdFloatMisc            0      0.00%     53.78% # Class of committed instruction. (Count)
system.cpu.commitStats0.committedInstType::SimdFloatMult            0      0.00%     53.78% # Class of committed instruction. (Count)
system.cpu.commitStats0.committedInstType::SimdFloatMultAcc        32768     13.75%     67.53% # Class of committed instruction. (Count)
system.cpu.commitStats0.committedInstType::SimdFloatMatMultAcc            0      0.00%     67.53% # Class of committed instruction. (Count)
system.cpu.commitStats0.committedInstType::SimdFloatSqrt            0      0.00%     67.53% # Class of committed instruction. (Count)
system.cpu.commitStats0.committedInstType::SimdReduceAdd            0      0.00%     67.53% # Class of committed instruction. (Count)
system.cpu.commitStats0.committedInstType::SimdReduceAlu            0      0.00%     67.53% # Class of committed instruction. (Count)
system.cpu.commitStats0.committedInstType::SimdReduceCmp            0      0.00%     67.53% # Class of committed instruction. (Count)
system.cpu.commitStats0.committedInstType::SimdFloatReduceAdd            0      0.00%     67.53% # Class of committed instruction. (Count)
system.cpu.commitStats0.committedInstType::SimdFloatReduceCmp            0      0.00%     67.53% # Class of committed instruction. (Count)
system.cpu.commitStats0.committedInstType::SimdAes            0      0.00%     67.53% # Class of committed instruction. (Count)
system.cpu.commitStats0.committedInstType::SimdAesMix            0      0.00%     67.53% # Class of committed instruction. (Count)
system.cpu.commitStats0.committedInstType::SimdSha1Hash            0      0.00%     67.53% # Class of committed instruction. (Count)
system.cpu.commitStats0.committedInstType::SimdSha1Hash2            0      0.00%     67.53% # Class of committed instruction. (Count)
system.cpu.commitStats0.committedInstType::SimdSha256Hash            0      0.00%     67.53% # Class of committed instruction. (Count)
system.cpu.commitStats0.committedInstType::SimdSha256Hash2            0      0.00%     67.53% # Class of committed instruction. (Count)
system.cpu.commitStats0.committedInstType::SimdShaSigma2            0      0.00%     67.53% # Class of committed instruction. (Count)
system.cpu.commitStats0.committedInstType::SimdShaSigma3            0      0.00%     67.53% # Class of committed instruction. (Count)
system.cpu.commitStats0.committedInstType::SimdSha3            0      0.00%     67.53% # Class of committed instruction. (Count)
system.cpu.commitStats0.committedInstType::SimdSm4e            0      0.00%     67.53% # Class of committed instruction. (Count)
system.cpu.commitStats0.committedInstType::SimdCrc            0      0.00%     67.53% # Class of committed instruction. (Count)
system.cpu.commitStats0.committedInstType::SimdPredAlu            0      0.00%     67.53% # Class of committed instruction. (Count)
system.cpu.commitStats0.committedInstType::SimdDotProd            0      0.00%     67.53% # Class of committed instruction. (Count)
system.cpu.commitStats0.committedInstType::Matrix            0      0.00%     67.53% # Class of committed instruction. (Count)
system.cpu.commitStats0.committedInstType::MatrixMov            0      0.00%     67.53% # Class of committed instruction. (Count)
system.cpu.commitStats0.committedInstType::MatrixOP            0      0.00%     67.53% # Class of committed instruction. (Count)
system.cpu.commitStats0.committedInstType::MemRead          466      0.20%     67.73% # Class of committed instruction. (Count)
system.cpu.commitStats0.committedInstType::MemWrite         4731      1.98%     69.71% # Class of committed instruction. (Count)
system.cpu.commitStats0.committedInstType::FloatMemRead        32769     13.75%     83.46% # Class of committed instruction. (Count)
system.cpu.commitStats0.committedInstType::FloatMemWrite            0      0.00%     83.46% # Class of committed instruction. (Count)
system.cpu.commitStats0.committedInstType::InstPrefetch            0      0.00%     83.46% # Class of committed instruction. (Count)
system.cpu.commitStats0.committedInstType::SimdUnitStrideLoad        33792     14.18%     97.64% # Class of committed instruction. (Count)
system.cpu.commitStats0.committedInstType::SimdUnitStrideStore         2048      0.86%     98.50% # Class of committed instruction. (Count)
system.cpu.commitStats0.committedInstType::SimdUnitStrideMaskLoad            0      0.00%     98.50% # Class of committed instruction. (Count)
system.cpu.commitStats0.committedInstType::SimdUnitStrideMaskStore            0      0.00%     98.50% # Class of committed instruction. (Count)
system.cpu.commitStats0.committedInstType::SimdStridedLoad            0      0.00%     98.50% # Class of committed instruction. (Count)
system.cpu.commitStats0.committedInstType::SimdStridedStore            0      0.00%     98.50% # Class of committed instruction. (Count)
system.cpu.commitStats0.committedInstType::SimdIndexedLoad            0      0.00%     98.50% # Class of committed instruction. (Count)
system.cpu.commitStats0.committedInstType::SimdIndexedStore            0      0.00%     98.50% # Class of committed instruction. (Count)
system.cpu.commitStats0.committedInstType::SimdWholeRegisterLoad            0      0.00%     98.50% # Class of committed instruction. (Count)
system.cpu.commitStats0.committedInstType::SimdWholeRegisterStore            0      0.00%     98.50% # Class of committed instruction. (Count)
system.cpu.commitStats0.committedInstType::SimdUnitStrideFaultOnlyFirstLoad            0      0.00%     98.50% # Class of committed instruction. (Count)
system.cpu.commitStats0.committedInstType::SimdUnitStrideSegmentedLoad            0      0.00%     98.50% # Class of committed instruction. (Count)
system.cpu.commitStats0.committedInstType::SimdUnitStrideSegmentedStore            0      0.00%     98.50% # Class of committed instruction. (Count)
system.cpu.commitStats0.committedInstType::SimdUnitStrideSegmentedFaultOnlyFirstLoad            0      0.00%     98.50% # Class of committed instruction. (Count)
system.cpu.commitStats0.committedInstType::SimdStrideSegmentedLoad            0      0.00%     98.50% # Class of committed instruction. (Count)
system.cpu.commitStats0.committedInstType::SimdStrideSegmentedStore            0      0.00%     98.50% # Class of committed instruction. (Count)
system.cpu.commitStats0.committedInstType::SimdExt            0      0.00%     98.50% # Class of committed instruction. (Count)
system.cpu.commitStats0.committedInstType::SimdFloatExt            0      0.00%     98.50% # Class of committed instruction. (Count)
system.cpu.commitStats0.committedInstType::SimdConfig         3585      1.50%    100.00% # Class of committed instruction. (Count)
system.cpu.commitStats0.committedInstType::SimdBf16Add            0      0.00%    100.00% # Class of committed instruction. (Count)
system.cpu.commitStats0.committedInstType::SimdBf16Cmp            0      0.00%    100.00% # Class of committed instruction. (Count)
system.cpu.commitStats0.committedInstType::SimdBf16Cvt            0      0.00%    100.00% # Class of committed instruction. (Count)
system.cpu.commitStats0.committedInstType::SimdBf16DotProd            0      0.00%    100.00% # Class of committed instruction. (Count)
system.cpu.commitStats0.committedInstType::SimdBf16MatMultAcc            0      0.00%    100.00% # Class of committed instruction. (Count)
system.cpu.commitStats0.committedInstType::SimdBf16Mult            0      0.00%    100.00% # Class of committed instruction. (Count)
system.cpu.commitStats0.committedInstType::SimdBf16MultAcc            0      0.00%    100.00% # Class of committed instruction. (Count)
system.cpu.commitStats0.committedInstType::Bf16Cvt            0      0.00%    100.00% # Class of committed instruction. (Count)
system.cpu.commitStats0.committedInstType::System            0      0.00%    100.00% # Class of committed instruction. (Count)
system.cpu.commitStats0.committedInstType::total       238356                       # Class of committed instruction. (Count)
system.cpu.commitStats0.committedControl::IsControl        42212                       # Class of control type instructions committed (Count)
system.cpu.commitStats0.committedControl::IsDirectControl        38523                       # Class of control type instructions committed (Count)
system.cpu.commitStats0.committedControl::IsIndirectControl         3689                       # Class of control type instructions committed (Count)
system.cpu.commitStats0.committedControl::IsCondControl        38382                       # Class of control type instructions committed (Count)
system.cpu.commitStats0.committedControl::IsUncondControl         3830                       # Class of control type instructions committed (Count)
system.cpu.commitStats0.committedControl::IsCall           87                       # Class of control type instructions committed (Count)
system.cpu.commitStats0.committedControl::IsReturn           86                       # Class of control type instructions committed (Count)
system.cpu.commitStats0.functionCalls              87                       # Number of function calls committed (Count)
system.cpu.commitStats0.numCallsReturns           173                       # Number of function calls and returns committed (Count)
system.cpu.exec_context.thread_0.numMatAluAccesses            0                       # Number of matrix alu accesses (Count)
system.cpu.exec_context.thread_0.numMatInsts            0                       # Number of matrix instructions (Count)
system.cpu.exec_context.thread_0.numIdleCycles     0.001000                       # Number of idle cycles (Cycle)
system.cpu.exec_context.thread_0.numBusyCycles 16819056.999000                       # Number of busy cycles (Cycle)
system.cpu.exec_context.thread_0.notIdleFraction     1.000000                       # Percentage of non-idle cycles (Ratio)
system.cpu.exec_context.thread_0.idleFraction     0.000000                       # Percentage of idle cycles (Ratio)
system.cpu.executeStats0.numInsts              238356                       # Number of executed instructions (Count)
system.cpu.executeStats0.numNop                     0                       # Number of nop insts executed (Count)
system.cpu.executeStats0.numBranches            42212                       # Number of branches executed (Count)
system.cpu.executeStats0.numLoadInsts           67027                       # Number of load instructions executed (Count)
system.cpu.executeStats0.numStoreInsts           6779                       # Number of stores executed (Count)
system.cpu.executeStats0.instRate            0.014172                       # Inst execution rate ((Count/Cycle))
system.cpu.executeStats0.numFpAluAccesses        32769                       # Number of float alu accesses (Count)
system.cpu.executeStats0.numFpRegReads          33792                       # Number of times the floating registers were read (Count)
system.cpu.executeStats0.numFpRegWrites         32769                       # Number of times the floating registers were written (Count)
system.cpu.executeStats0.numIntAluAccesses       162515                       # Number of integer alu accesses (Count)
system.cpu.executeStats0.numIntRegReads        281867                       # Number of times the integer registers were read (Count)
system.cpu.executeStats0.numIntRegWrites        85510                       # Number of times the integer registers were written (Count)
system.cpu.executeStats0.numMemRefs             73806                       # Number of memory refs (Count)
system.cpu.executeStats0.numMiscRegReads       326708                       # Number of times the Misc registers were read (Count)
system.cpu.executeStats0.numMiscRegWrites       141319                       # Number of times the Misc registers were written (Count)
system.cpu.executeStats0.numVecAluAccesses        79367                       # Number of vector alu accesses (Count)
system.cpu.executeStats0.numVecRegReads         78854                       # Number of times the vector registers were read (Count)
system.cpu.executeStats0.numVecRegWrites        73734                       # Number of times the vector registers were written (Count)
system.cpu.executeStats0.numDiscardedOps            0                       # Number of ops (including micro ops) which were discarded before commit (Count)
system.cpu.fetchStats0.numInsts                238381                       # Number of instructions fetched (thread level) (Count)
system.cpu.fetchStats0.numOps                  238381                       # Number of ops (including micro ops) fetched (thread level) (Count)
system.cpu.fetchStats0.fetchRate             0.014173                       # Number of inst fetches per cycle ((Count/Cycle))
system.cpu.fetchStats0.numBranches              42212                       # Number of branches fetched (Count)
system.cpu.fetchStats0.branchRate            0.002510                       # Number of branch fetches per cycle (Ratio)
system.cpu.fetchStats0.numFetchSuspends             0                       # Number of times Execute suspended instruction fetching (Count)
system.cpu.mmu.dtb.readHits                         0                       # read hits (Count)
system.cpu.mmu.dtb.readMisses                       0                       # read misses (Count)
system.cpu.mmu.dtb.readAccesses                     0                       # read accesses (Count)
system.cpu.mmu.dtb.writeHits                        0                       # write hits (Count)
system.cpu.mmu.dtb.writeMisses                      0                       # write misses (Count)
system.cpu.mmu.dtb.writeAccesses                    0                       # write accesses (Count)
system.cpu.mmu.dtb.hits                             0                       # Total TLB (read and write) hits (Count)
system.cpu.mmu.dtb.misses                           0                       # Total TLB (read and write) misses (Count)
system.cpu.mmu.dtb.accesses                         0                       # Total TLB (read and write) accesses (Count)
system.cpu.mmu.dtb.walker.num_4kb_walks             0                       # Completed page walks with 4KB pages (Count)
system.cpu.mmu.dtb.walker.num_64kb_walks            0                       # Completed page walks with 64KB pages (Count)
system.cpu.mmu.dtb.walker.num_2mb_walks             0                       # Completed page walks with 2MB pages (Count)
system.cpu.mmu.dtb.walker.power_state.pwrStateResidencyTicks::UNDEFINED  16819057000                       # Cumulative time (in ticks) in various power states (Tick)
system.cpu.mmu.itb.readHits                         0                       # read hits (Count)
system.cpu.mmu.itb.readMisses                       0                       # read misses (Count)
system.cpu.mmu.itb.readAccesses                     0                       # read accesses (Count)
system.cpu.mmu.itb.writeHits                        0                       # write hits (Count)
system.cpu.mmu.itb.writeMisses                      0                       # write misses (Count)
system.cpu.mmu.itb.writeAccesses                    0                       # write accesses (Count)
system.cpu.mmu.itb.hits                             0                       # Total TLB (read and write) hits (Count)
system.cpu.mmu.itb.misses                           0                       # Total TLB (read and write) misses (Count)
system.cpu.mmu.itb.accesses                         0                       # Total TLB (read and write) accesses (Count)
system.cpu.mmu.itb.walker.num_4kb_walks             0                       # Completed page walks with 4KB pages (Count)
system.cpu.mmu.itb.walker.num_64kb_walks            0                       # Completed page walks with 64KB pages (Count)
system.cpu.mmu.itb.walker.num_2mb_walks             0                       # Completed page walks with 2MB pages (Count)
system.cpu.mmu.itb.walker.power_state.pwrStateResidencyTicks::UNDEFINED  16819057000                       # Cumulative time (in ticks) in various power states (Tick)
system.cpu.power_state.pwrStateResidencyTicks::ON  16819057000                       # Cumulative time (in ticks) in various power states (Tick)
system.cpu.thread_0.numInsts                   238356                       # Number of Instructions committed (Count)
system.cpu.thread_0.numOps                     238356                       # Number of Ops committed (Count)
system.cpu.thread_0.numMemRefs                  73806                       # Number of Memory References (Count)
system.cpu.workload.numSyscalls                    12                       # Number of system calls (Count)
system.mem_ctrl.avgPriority_cpu.inst::samples    254909.00                       # Average QoS priority value for accepted requests (Count)
system.mem_ctrl.avgPriority_cpu.data::samples     69319.00                       # Average QoS priority value for accepted requests (Count)
system.mem_ctrl.priorityMinLatency       0.000000018750                       # per QoS priority minimum request to response latency (Second)
system.mem_ctrl.priorityMaxLatency       0.001334310500                       # per QoS priority maximum request to response latency (Second)
system.mem_ctrl.numReadWriteTurnArounds           115                       # Number of turnarounds from READ to WRITE (Count)
system.mem_ctrl.numWriteReadTurnArounds           115                       # Number of turnarounds from WRITE to READ (Count)
system.mem_ctrl.numStayReadState               656454                       # Number of times bus staying in READ state (Count)
system.mem_ctrl.numStayWriteState                1725                       # Number of times bus staying in WRITE state (Count)
system.mem_ctrl.readReqs                       322448                       # Number of read requests accepted (Count)
system.mem_ctrl.writeReqs                        7547                       # Number of write requests accepted (Count)
system.mem_ctrl.readBursts                     322448                       # Number of controller read bursts, including those serviced by the write queue (Count)
system.mem_ctrl.writeBursts                      7547                       # Number of controller write bursts, including those merged in the write queue (Count)
system.mem_ctrl.servicedByWrQ                      89                       # Number of controller read bursts serviced by the write queue (Count)
system.mem_ctrl.mergedWrBursts                   5678                       # Number of controller write bursts merged with an existing one (Count)
system.mem_ctrl.neitherReadNorWriteReqs             0                       # Number of requests that are neither read nor write (Count)
system.mem_ctrl.avgRdQLen                        1.00                       # Average read queue length when enqueuing ((Count/Tick))
system.mem_ctrl.avgWrQLen                       25.86                       # Average write queue length when enqueuing ((Count/Tick))
system.mem_ctrl.numRdRetry                          0                       # Number of times read queue was full causing retry (Count)
system.mem_ctrl.numWrRetry                          0                       # Number of times write queue was full causing retry (Count)
system.mem_ctrl.readPktSize::0                     36                       # Read request sizes (log2) (Count)
system.mem_ctrl.readPktSize::1                     32                       # Read request sizes (log2) (Count)
system.mem_ctrl.readPktSize::2                 287710                       # Read request sizes (log2) (Count)
system.mem_ctrl.readPktSize::3                    366                       # Read request sizes (log2) (Count)
system.mem_ctrl.readPktSize::4                   1024                       # Read request sizes (log2) (Count)
system.mem_ctrl.readPktSize::5                  33280                       # Read request sizes (log2) (Count)
system.mem_ctrl.readPktSize::6                      0                       # Read request sizes (log2) (Count)
system.mem_ctrl.writePktSize::0                    70                       # Write request sizes (log2) (Count)
system.mem_ctrl.writePktSize::1                    21                       # Write request sizes (log2) (Count)
system.mem_ctrl.writePktSize::2                    35                       # Write request sizes (log2) (Count)
system.mem_ctrl.writePktSize::3                  4605                       # Write request sizes (log2) (Count)
system.mem_ctrl.writePktSize::4                  1536                       # Write request sizes (log2) (Count)
system.mem_ctrl.writePktSize::5                  1280                       # Write request sizes (log2) (Count)
system.mem_ctrl.writePktSize::6                     0                       # Write request sizes (log2) (Count)
system.mem_ctrl.rdQLenPdf::0                   321847                       # What read queue length does an incoming req see (Count)
system.mem_ctrl.rdQLenPdf::1                      512                       # What read queue length does an incoming req see (Count)
system.mem_ctrl.rdQLenPdf::2                        0                       # What read queue length does an incoming req see (Count)
system.mem_ctrl.rdQLenPdf::3                        0                       # What read queue length does an incoming req see (Count)
system.mem_ctrl.rdQLenPdf::4                        0                       # What read queue length does an incoming req see (Count)
system.mem_ctrl.rdQLenPdf::5                        0                       # What read queue length does an incoming req see (Count)
system.mem_ctrl.rdQLenPdf::6                        0                       # What read queue length does an incoming req see (Count)
system.mem_ctrl.rdQLenPdf::7                        0                       # What read queue length does an incoming req see (Count)
system.mem_ctrl.rdQLenPdf::8                        0                       # What read queue length does an incoming req see (Count)
system.mem_ctrl.rdQLenPdf::9                        0                       # What read queue length does an incoming req see (Count)
system.mem_ctrl.rdQLenPdf::10                       0                       # What read queue length does an incoming req see (Count)
system.mem_ctrl.rdQLenPdf::11                       0                       # What read queue length does an incoming req see (Count)
system.mem_ctrl.rdQLenPdf::12                       0                       # What read queue length does an incoming req see (Count)
system.mem_ctrl.rdQLenPdf::13                       0                       # What read queue length does an incoming req see (Count)
system.mem_ctrl.rdQLenPdf::14                       0                       # What read queue length does an incoming req see (Count)
system.mem_ctrl.rdQLenPdf::15                       0                       # What read queue length does an incoming req see (Count)
system.mem_ctrl.rdQLenPdf::16                       0                       # What read queue length does an incoming req see (Count)
system.mem_ctrl.rdQLenPdf::17                       0                       # What read queue length does an incoming req see (Count)
system.mem_ctrl.rdQLenPdf::18                       0                       # What read queue length does an incoming req see (Count)
system.mem_ctrl.rdQLenPdf::19                       0                       # What read queue length does an incoming req see (Count)
system.mem_ctrl.rdQLenPdf::20                       0                       # What read queue length does an incoming req see (Count)
system.mem_ctrl.rdQLenPdf::21                       0                       # What read queue length does an incoming req see (Count)
system.mem_ctrl.rdQLenPdf::22                       0                       # What read queue length does an incoming req see (Count)
system.mem_ctrl.rdQLenPdf::23                       0                       # What read queue length does an incoming req see (Count)
system.mem_ctrl.rdQLenPdf::24                       0                       # What read queue length does an incoming req see (Count)
system.mem_ctrl.rdQLenPdf::25                       0                       # What read queue length does an incoming req see (Count)
system.mem_ctrl.rdQLenPdf::26                       0                       # What read queue length does an incoming req see (Count)
system.mem_ctrl.rdQLenPdf::27                       0                       # What read queue length does an incoming req see (Count)
system.mem_ctrl.rdQLenPdf::28                       0                       # What read queue length does an incoming req see (Count)
system.mem_ctrl.rdQLenPdf::29                       0                       # What read queue length does an incoming req see (Count)
system.mem_ctrl.rdQLenPdf::30                       0                       # What read queue length does an incoming req see (Count)
system.mem_ctrl.rdQLenPdf::31                       0                       # What read queue length does an incoming req see (Count)
system.mem_ctrl.wrQLenPdf::0                        1                       # What write queue length does an incoming req see (Count)
system.mem_ctrl.wrQLenPdf::1                        1                       # What write queue length does an incoming req see (Count)
system.mem_ctrl.wrQLenPdf::2                        1                       # What write queue length does an incoming req see (Count)
system.mem_ctrl.wrQLenPdf::3                        1                       # What write queue length does an incoming req see (Count)
system.mem_ctrl.wrQLenPdf::4                        1                       # What write queue length does an incoming req see (Count)
system.mem_ctrl.wrQLenPdf::5                        1                       # What write queue length does an incoming req see (Count)
system.mem_ctrl.wrQLenPdf::6                        1                       # What write queue length does an incoming req see (Count)
system.mem_ctrl.wrQLenPdf::7                        1                       # What write queue length does an incoming req see (Count)
system.mem_ctrl.wrQLenPdf::8                        1                       # What write queue length does an incoming req see (Count)
system.mem_ctrl.wrQLenPdf::9                        1                       # What write queue length does an incoming req see (Count)
system.mem_ctrl.wrQLenPdf::10                       1                       # What write queue length does an incoming req see (Count)
system.mem_ctrl.wrQLenPdf::11                       1                       # What write queue length does an incoming req see (Count)
system.mem_ctrl.wrQLenPdf::12                       1                       # What write queue length does an incoming req see (Count)
system.mem_ctrl.wrQLenPdf::13                       1                       # What write queue length does an incoming req see (Count)
system.mem_ctrl.wrQLenPdf::14                       1                       # What write queue length does an incoming req see (Count)
system.mem_ctrl.wrQLenPdf::15                       1                       # What write queue length does an incoming req see (Count)
system.mem_ctrl.wrQLenPdf::16                       1                       # What write queue length does an incoming req see (Count)
system.mem_ctrl.wrQLenPdf::17                     100                       # What write queue length does an incoming req see (Count)
system.mem_ctrl.wrQLenPdf::18                     116                       # What write queue length does an incoming req see (Count)
system.mem_ctrl.wrQLenPdf::19                     116                       # What write queue length does an incoming req see (Count)
system.mem_ctrl.wrQLenPdf::20                     116                       # What write queue length does an incoming req see (Count)
system.mem_ctrl.wrQLenPdf::21                     116                       # What write queue length does an incoming req see (Count)
system.mem_ctrl.wrQLenPdf::22                     116                       # What write queue length does an incoming req see (Count)
system.mem_ctrl.wrQLenPdf::23                     116                       # What write queue length does an incoming req see (Count)
system.mem_ctrl.wrQLenPdf::24                     116                       # What write queue length does an incoming req see (Count)
system.mem_ctrl.wrQLenPdf::25                     116                       # What write queue length does an incoming req see (Count)
system.mem_ctrl.wrQLenPdf::26                     116                       # What write queue length does an incoming req see (Count)
system.mem_ctrl.wrQLenPdf::27                     116                       # What write queue length does an incoming req see (Count)
system.mem_ctrl.wrQLenPdf::28                     116                       # What write queue length does an incoming req see (Count)
system.mem_ctrl.wrQLenPdf::29                     130                       # What write queue length does an incoming req see (Count)
system.mem_ctrl.wrQLenPdf::30                     116                       # What write queue length does an incoming req see (Count)
system.mem_ctrl.wrQLenPdf::31                     115                       # What write queue length does an incoming req see (Count)
system.mem_ctrl.wrQLenPdf::32                     115                       # What write queue length does an incoming req see (Count)
system.mem_ctrl.wrQLenPdf::33                       0                       # What write queue length does an incoming req see (Count)
system.mem_ctrl.wrQLenPdf::34                       0                       # What write queue length does an incoming req see (Count)
system.mem_ctrl.wrQLenPdf::35                       0                       # What write queue length does an incoming req see (Count)
system.mem_ctrl.wrQLenPdf::36                       0                       # What write queue length does an incoming req see (Count)
system.mem_ctrl.wrQLenPdf::37                       0                       # What write queue length does an incoming req see (Count)
system.mem_ctrl.wrQLenPdf::38                       0                       # What write queue length does an incoming req see (Count)
system.mem_ctrl.wrQLenPdf::39                       0                       # What write queue length does an incoming req see (Count)
system.mem_ctrl.wrQLenPdf::40                       0                       # What write queue length does an incoming req see (Count)
system.mem_ctrl.wrQLenPdf::41                       0                       # What write queue length does an incoming req see (Count)
system.mem_ctrl.wrQLenPdf::42                       0                       # What write queue length does an incoming req see (Count)
system.mem_ctrl.wrQLenPdf::43                       0                       # What write queue length does an incoming req see (Count)
system.mem_ctrl.wrQLenPdf::44                       0                       # What write queue length does an incoming req see (Count)
system.mem_ctrl.wrQLenPdf::45                       0                       # What write queue length does an incoming req see (Count)
system.mem_ctrl.wrQLenPdf::46                       0                       # What write queue length does an incoming req see (Count)
system.mem_ctrl.wrQLenPdf::47                       0                       # What write queue length does an incoming req see (Count)
system.mem_ctrl.wrQLenPdf::48                       0                       # What write queue length does an incoming req see (Count)
system.mem_ctrl.wrQLenPdf::49                       0                       # What write queue length does an incoming req see (Count)
system.mem_ctrl.wrQLenPdf::50                       0                       # What write queue length does an incoming req see (Count)
system.mem_ctrl.wrQLenPdf::51                       0                       # What write queue length does an incoming req see (Count)
system.mem_ctrl.wrQLenPdf::52                       0                       # What write queue length does an incoming req see (Count)
system.mem_ctrl.wrQLenPdf::53                       0                       # What write queue length does an incoming req see (Count)
system.mem_ctrl.wrQLenPdf::54                       0                       # What write queue length does an incoming req see (Count)
system.mem_ctrl.wrQLenPdf::55                       0                       # What write queue length does an incoming req see (Count)
system.mem_ctrl.wrQLenPdf::56                       0                       # What write queue length does an incoming req see (Count)
system.mem_ctrl.wrQLenPdf::57                       0                       # What write queue length does an incoming req see (Count)
system.mem_ctrl.wrQLenPdf::58                       0                       # What write queue length does an incoming req see (Count)
system.mem_ctrl.wrQLenPdf::59                       0                       # What write queue length does an incoming req see (Count)
system.mem_ctrl.wrQLenPdf::60                       0                       # What write queue length does an incoming req see (Count)
system.mem_ctrl.wrQLenPdf::61                       0                       # What write queue length does an incoming req see (Count)
system.mem_ctrl.wrQLenPdf::62                       0                       # What write queue length does an incoming req see (Count)
system.mem_ctrl.wrQLenPdf::63                       0                       # What write queue length does an incoming req see (Count)
system.mem_ctrl.rdPerTurnAround::samples          115                       # Reads before turning the bus around for writes (Count)
system.mem_ctrl.rdPerTurnAround::mean     2788.165217                       # Reads before turning the bus around for writes (Count)
system.mem_ctrl.rdPerTurnAround::gmean    1373.308307                       # Reads before turning the bus around for writes (Count)
system.mem_ctrl.rdPerTurnAround::stdev    2703.788434                       # Reads before turning the bus around for writes (Count)
system.mem_ctrl.rdPerTurnAround::256-511           33     28.70%     28.70% # Reads before turning the bus around for writes (Count)
system.mem_ctrl.rdPerTurnAround::512-767           32     27.83%     56.52% # Reads before turning the bus around for writes (Count)
system.mem_ctrl.rdPerTurnAround::1024-1279            1      0.87%     57.39% # Reads before turning the bus around for writes (Count)
system.mem_ctrl.rdPerTurnAround::1280-1535            1      0.87%     58.26% # Reads before turning the bus around for writes (Count)
system.mem_ctrl.rdPerTurnAround::5376-5631           17     14.78%     73.04% # Reads before turning the bus around for writes (Count)
system.mem_ctrl.rdPerTurnAround::6144-6399           31     26.96%    100.00% # Reads before turning the bus around for writes (Count)
system.mem_ctrl.rdPerTurnAround::total            115                       # Reads before turning the bus around for writes (Count)
system.mem_ctrl.wrPerTurnAround::samples          115                       # Writes before turning the bus around for reads (Count)
system.mem_ctrl.wrPerTurnAround::mean              16                       # Writes before turning the bus around for reads (Count)
system.mem_ctrl.wrPerTurnAround::gmean      16.000000                       # Writes before turning the bus around for reads (Count)
system.mem_ctrl.wrPerTurnAround::16               115    100.00%    100.00% # Writes before turning the bus around for reads (Count)
system.mem_ctrl.wrPerTurnAround::total            115                       # Writes before turning the bus around for reads (Count)
system.mem_ctrl.bytesReadWrQ                     5696                       # Total number of bytes read from write queue (Byte)
system.mem_ctrl.bytesReadSys                  2235212                       # Total read bytes from the system interface side (Byte)
system.mem_ctrl.bytesWrittenSys                102628                       # Total written bytes from the system interface side (Byte)
system.mem_ctrl.avgRdBWSys               132897581.59449725                       # Average system read bandwidth in Byte/s ((Byte/Second))
system.mem_ctrl.avgWrBWSys               6101887.87635359                       # Average system write bandwidth in Byte/s ((Byte/Second))
system.mem_ctrl.totGap                    16818931000                       # Total gap between requests (Tick)
system.mem_ctrl.avgGap                       50967.23                       # Average gap between requests ((Tick/Count))
system.mem_ctrl.requestorReadBytes::cpu.inst      1019636                       # Per-requestor bytes read from memory (Byte)
system.mem_ctrl.requestorReadBytes::cpu.data      1215024                       # Per-requestor bytes read from memory (Byte)
system.mem_ctrl.requestorWriteBytes::cpu.data        29109                       # Per-requestor bytes write to memory (Byte)
system.mem_ctrl.requestorReadRate::cpu.inst 60623850.671295076609                       # Per-requestor bytes read from memory rate ((Byte/Second))
system.mem_ctrl.requestorReadRate::cpu.data 72240911.009457916021                       # Per-requestor bytes read from memory rate ((Byte/Second))
system.mem_ctrl.requestorWriteRate::cpu.data 1730715.342721057590                       # Per-requestor bytes write to memory rate ((Byte/Second))
system.mem_ctrl.requestorReadAccesses::cpu.inst       254909                       # Per-requestor read serviced memory accesses (Count)
system.mem_ctrl.requestorReadAccesses::cpu.data        67539                       # Per-requestor read serviced memory accesses (Count)
system.mem_ctrl.requestorWriteAccesses::cpu.data         7547                       # Per-requestor write serviced memory accesses (Count)
system.mem_ctrl.requestorReadTotalLat::cpu.inst   5442613500                       # Per-requestor read total memory access latency (Tick)
system.mem_ctrl.requestorReadTotalLat::cpu.data   1504374250                       # Per-requestor read total memory access latency (Tick)
system.mem_ctrl.requestorWriteTotalLat::cpu.data 409329091000                       # Per-requestor write total memory access latency (Tick)
system.mem_ctrl.requestorReadAvgLat::cpu.inst     21351.20                       # Per-requestor read average memory access latency ((Tick/Count))
system.mem_ctrl.requestorReadAvgLat::cpu.data     22274.16                       # Per-requestor read average memory access latency ((Tick/Count))
system.mem_ctrl.requestorWriteAvgLat::cpu.data  54237324.90                       # Per-requestor write average memory access latency ((Tick/Count))
system.mem_ctrl.dram.bytesRead::cpu.inst      1019636                       # Number of bytes read from this memory (Byte)
system.mem_ctrl.dram.bytesRead::cpu.data      1215576                       # Number of bytes read from this memory (Byte)
system.mem_ctrl.dram.bytesRead::total         2235212                       # Number of bytes read from this memory (Byte)
system.mem_ctrl.dram.bytesInstRead::cpu.inst      1019636                       # Number of instructions bytes read from this memory (Byte)
system.mem_ctrl.dram.bytesInstRead::total      1019636                       # Number of instructions bytes read from this memory (Byte)
system.mem_ctrl.dram.bytesWritten::cpu.data       102628                       # Number of bytes written to this memory (Byte)
system.mem_ctrl.dram.bytesWritten::total       102628                       # Number of bytes written to this memory (Byte)
system.mem_ctrl.dram.numReads::cpu.inst        254909                       # Number of read requests responded to by this memory (Count)
system.mem_ctrl.dram.numReads::cpu.data         67539                       # Number of read requests responded to by this memory (Count)
system.mem_ctrl.dram.numReads::total           322448                       # Number of read requests responded to by this memory (Count)
system.mem_ctrl.dram.numWrites::cpu.data         7547                       # Number of write requests responded to by this memory (Count)
system.mem_ctrl.dram.numWrites::total            7547                       # Number of write requests responded to by this memory (Count)
system.mem_ctrl.dram.bwRead::cpu.inst        60623851                       # Total read bandwidth from this memory ((Byte/Second))
system.mem_ctrl.dram.bwRead::cpu.data        72273731                       # Total read bandwidth from this memory ((Byte/Second))
system.mem_ctrl.dram.bwRead::total          132897582                       # Total read bandwidth from this memory ((Byte/Second))
system.mem_ctrl.dram.bwInstRead::cpu.inst     60623851                       # Instruction read bandwidth from this memory ((Byte/Second))
system.mem_ctrl.dram.bwInstRead::total       60623851                       # Instruction read bandwidth from this memory ((Byte/Second))
system.mem_ctrl.dram.bwWrite::cpu.data        6101888                       # Write bandwidth from this memory ((Byte/Second))
system.mem_ctrl.dram.bwWrite::total           6101888                       # Write bandwidth from this memory ((Byte/Second))
system.mem_ctrl.dram.bwTotal::cpu.inst       60623851                       # Total bandwidth to/from this memory ((Byte/Second))
system.mem_ctrl.dram.bwTotal::cpu.data       78375619                       # Total bandwidth to/from this memory ((Byte/Second))
system.mem_ctrl.dram.bwTotal::total         138999469                       # Total bandwidth to/from this memory ((Byte/Second))
system.mem_ctrl.dram.readBursts                322359                       # Number of DRAM read bursts (Count)
system.mem_ctrl.dram.writeBursts                 1840                       # Number of DRAM write bursts (Count)
system.mem_ctrl.dram.perBankRdBursts::0        253860                       # Per bank write bursts (Count)
system.mem_ctrl.dram.perBankRdBursts::1           403                       # Per bank write bursts (Count)
system.mem_ctrl.dram.perBankRdBursts::2           331                       # Per bank write bursts (Count)
system.mem_ctrl.dram.perBankRdBursts::3            98                       # Per bank write bursts (Count)
system.mem_ctrl.dram.perBankRdBursts::4           254                       # Per bank write bursts (Count)
system.mem_ctrl.dram.perBankRdBursts::5           126                       # Per bank write bursts (Count)
system.mem_ctrl.dram.perBankRdBursts::6          8366                       # Per bank write bursts (Count)
system.mem_ctrl.dram.perBankRdBursts::7          8609                       # Per bank write bursts (Count)
system.mem_ctrl.dram.perBankRdBursts::8           392                       # Per bank write bursts (Count)
system.mem_ctrl.dram.perBankRdBursts::9           768                       # Per bank write bursts (Count)
system.mem_ctrl.dram.perBankRdBursts::10        16384                       # Per bank write bursts (Count)
system.mem_ctrl.dram.perBankRdBursts::11        16384                       # Per bank write bursts (Count)
system.mem_ctrl.dram.perBankRdBursts::12        16384                       # Per bank write bursts (Count)
system.mem_ctrl.dram.perBankRdBursts::13            0                       # Per bank write bursts (Count)
system.mem_ctrl.dram.perBankRdBursts::14            0                       # Per bank write bursts (Count)
system.mem_ctrl.dram.perBankRdBursts::15            0                       # Per bank write bursts (Count)
system.mem_ctrl.dram.perBankWrBursts::0             0                       # Per bank write bursts (Count)
system.mem_ctrl.dram.perBankWrBursts::1             0                       # Per bank write bursts (Count)
system.mem_ctrl.dram.perBankWrBursts::2             0                       # Per bank write bursts (Count)
system.mem_ctrl.dram.perBankWrBursts::3             0                       # Per bank write bursts (Count)
system.mem_ctrl.dram.perBankWrBursts::4             0                       # Per bank write bursts (Count)
system.mem_ctrl.dram.perBankWrBursts::5            30                       # Per bank write bursts (Count)
system.mem_ctrl.dram.perBankWrBursts::6            77                       # Per bank write bursts (Count)
system.mem_ctrl.dram.perBankWrBursts::7           385                       # Per bank write bursts (Count)
system.mem_ctrl.dram.perBankWrBursts::8           325                       # Per bank write bursts (Count)
system.mem_ctrl.dram.perBankWrBursts::9           639                       # Per bank write bursts (Count)
system.mem_ctrl.dram.perBankWrBursts::10          128                       # Per bank write bursts (Count)
system.mem_ctrl.dram.perBankWrBursts::11          128                       # Per bank write bursts (Count)
system.mem_ctrl.dram.perBankWrBursts::12          128                       # Per bank write bursts (Count)
system.mem_ctrl.dram.perBankWrBursts::13            0                       # Per bank write bursts (Count)
system.mem_ctrl.dram.perBankWrBursts::14            0                       # Per bank write bursts (Count)
system.mem_ctrl.dram.perBankWrBursts::15            0                       # Per bank write bursts (Count)
system.mem_ctrl.dram.totQLat                902756500                       # Total ticks spent queuing (Tick)
system.mem_ctrl.dram.totBusLat             1611795000                       # Total ticks spent in databus transfers (Tick)
system.mem_ctrl.dram.totMemAccLat          6946987750                       # Total ticks spent from burst creation until serviced by the DRAM (Tick)
system.mem_ctrl.dram.avgQLat                  2800.47                       # Average queueing delay per DRAM burst ((Tick/Count))
system.mem_ctrl.dram.avgBusLat                5000.00                       # Average bus latency per DRAM burst ((Tick/Count))
system.mem_ctrl.dram.avgMemAccLat            21550.47                       # Average memory access latency per DRAM burst ((Tick/Count))
system.mem_ctrl.dram.readRowHits               297221                       # Number of row buffer hits during reads (Count)
system.mem_ctrl.dram.writeRowHits                1700                       # Number of row buffer hits during writes (Count)
system.mem_ctrl.dram.readRowHitRate             92.20                       # Row buffer hit rate for reads (Ratio)
system.mem_ctrl.dram.writeRowHitRate            92.39                       # Row buffer hit rate for writes (Ratio)
system.mem_ctrl.dram.bytesPerActivate::samples        25275                       # Bytes accessed per row activation (Byte)
system.mem_ctrl.dram.bytesPerActivate::mean   820.896538                       # Bytes accessed per row activation (Byte)
system.mem_ctrl.dram.bytesPerActivate::gmean   656.915307                       # Bytes accessed per row activation (Byte)
system.mem_ctrl.dram.bytesPerActivate::stdev   348.886702                       # Bytes accessed per row activation (Byte)
system.mem_ctrl.dram.bytesPerActivate::0-127         1756      6.95%      6.95% # Bytes accessed per row activation (Byte)
system.mem_ctrl.dram.bytesPerActivate::128-255         1855      7.34%     14.29% # Bytes accessed per row activation (Byte)
system.mem_ctrl.dram.bytesPerActivate::256-383         1193      4.72%     19.01% # Bytes accessed per row activation (Byte)
system.mem_ctrl.dram.bytesPerActivate::384-511          566      2.24%     21.25% # Bytes accessed per row activation (Byte)
system.mem_ctrl.dram.bytesPerActivate::512-639          586      2.32%     23.56% # Bytes accessed per row activation (Byte)
system.mem_ctrl.dram.bytesPerActivate::640-767          477      1.89%     25.45% # Bytes accessed per row activation (Byte)
system.mem_ctrl.dram.bytesPerActivate::768-895          439      1.74%     27.19% # Bytes accessed per row activation (Byte)
system.mem_ctrl.dram.bytesPerActivate::896-1023          595      2.35%     29.54% # Bytes accessed per row activation (Byte)
system.mem_ctrl.dram.bytesPerActivate::1024-1151        17808     70.46%    100.00% # Bytes accessed per row activation (Byte)
system.mem_ctrl.dram.bytesPerActivate::total        25275                       # Bytes accessed per row activation (Byte)
system.mem_ctrl.dram.dramBytesRead           20630976                       # Total bytes read (Byte)
system.mem_ctrl.dram.dramBytesWritten          117760                       # Total bytes written (Byte)
system.mem_ctrl.dram.avgRdBW              1226.642849                       # Average DRAM read bandwidth in MiBytes/s ((Byte/Second))
system.mem_ctrl.dram.avgWrBW                 7.001582                       # Average DRAM write bandwidth in MiBytes/s ((Byte/Second))
system.mem_ctrl.dram.peakBW                  12800.00                       # Theoretical peak bandwidth in MiByte/s ((Byte/Second))
system.mem_ctrl.dram.busUtil                     9.64                       # Data bus utilization in percentage (Ratio)
system.mem_ctrl.dram.busUtilRead                 9.58                       # Data bus utilization in percentage for reads (Ratio)
system.mem_ctrl.dram.busUtilWrite                0.05                       # Data bus utilization in percentage for writes (Ratio)
system.mem_ctrl.dram.pageHitRate                92.20                       # Row buffer hit rate, read and write combined (Ratio)
system.mem_ctrl.dram.power_state.pwrStateResidencyTicks::UNDEFINED  16819057000                       # Cumulative time (in ticks) in various power states (Tick)
system.mem_ctrl.dram.rank0.actEnergy        140208180                       # Energy for activate commands per rank (pJ) (Joule)
system.mem_ctrl.dram.rank0.preEnergy         74511030                       # Energy for precharge commands per rank (pJ) (Joule)
system.mem_ctrl.dram.rank0.readEnergy      1942415580                       # Energy for read commands per rank (pJ) (Joule)
system.mem_ctrl.dram.rank0.writeEnergy        2568240                       # Energy for write commands per rank (pJ) (Joule)
system.mem_ctrl.dram.rank0.refreshEnergy 1327622400.000000                       # Energy for refresh commands per rank (pJ) (Joule)
system.mem_ctrl.dram.rank0.actBackEnergy   7429772730                       # Energy for active background per rank (pJ) (Joule)
system.mem_ctrl.dram.rank0.preBackEnergy    201867360                       # Energy for precharge background per rank (pJ) (Joule)
system.mem_ctrl.dram.rank0.actPowerDownEnergy            0                       # Energy for active power-down per rank (pJ) (Joule)
system.mem_ctrl.dram.rank0.prePowerDownEnergy            0                       # Energy for precharge power-down per rank (pJ) (Joule)
system.mem_ctrl.dram.rank0.selfRefreshEnergy            0                       # Energy for self refresh per rank (pJ) (Joule)
system.mem_ctrl.dram.rank0.totalEnergy    11118965520                       # Total energy per rank (pJ) (Joule)
system.mem_ctrl.dram.rank0.averagePower    661.093278                       # Core power per rank (mW) (Watt)
system.mem_ctrl.dram.rank0.totalIdleTime            0                       # Total Idle time Per DRAM Rank (Tick)
system.mem_ctrl.dram.rank0.pwrStateTime::IDLE    351088250                       # Time in different power states (Tick)
system.mem_ctrl.dram.rank0.pwrStateTime::REF    561600000                       # Time in different power states (Tick)
system.mem_ctrl.dram.rank0.pwrStateTime::SREF            0                       # Time in different power states (Tick)
system.mem_ctrl.dram.rank0.pwrStateTime::PRE_PDN            0                       # Time in different power states (Tick)
system.mem_ctrl.dram.rank0.pwrStateTime::ACT  15906368750                       # Time in different power states (Tick)
system.mem_ctrl.dram.rank0.pwrStateTime::ACT_PDN            0                       # Time in different power states (Tick)
system.mem_ctrl.dram.rank1.actEnergy         40276740                       # Energy for activate commands per rank (pJ) (Joule)
system.mem_ctrl.dram.rank1.preEnergy         21407595                       # Energy for precharge commands per rank (pJ) (Joule)
system.mem_ctrl.dram.rank1.readEnergy       359227680                       # Energy for read commands per rank (pJ) (Joule)
system.mem_ctrl.dram.rank1.writeEnergy        7036560                       # Energy for write commands per rank (pJ) (Joule)
system.mem_ctrl.dram.rank1.refreshEnergy 1327622400.000000                       # Energy for refresh commands per rank (pJ) (Joule)
system.mem_ctrl.dram.rank1.actBackEnergy   6339097680                       # Energy for active background per rank (pJ) (Joule)
system.mem_ctrl.dram.rank1.preBackEnergy   1120330560                       # Energy for precharge background per rank (pJ) (Joule)
system.mem_ctrl.dram.rank1.actPowerDownEnergy            0                       # Energy for active power-down per rank (pJ) (Joule)
system.mem_ctrl.dram.rank1.prePowerDownEnergy            0                       # Energy for precharge power-down per rank (pJ) (Joule)
system.mem_ctrl.dram.rank1.selfRefreshEnergy            0                       # Energy for self refresh per rank (pJ) (Joule)
system.mem_ctrl.dram.rank1.totalEnergy     9214999215                       # Total energy per rank (pJ) (Joule)
system.mem_ctrl.dram.rank1.averagePower    547.890361                       # Core power per rank (mW) (Watt)
system.mem_ctrl.dram.rank1.totalIdleTime            0                       # Total Idle time Per DRAM Rank (Tick)
system.mem_ctrl.dram.rank1.pwrStateTime::IDLE   2854224250                       # Time in different power states (Tick)
system.mem_ctrl.dram.rank1.pwrStateTime::REF    561600000                       # Time in different power states (Tick)
system.mem_ctrl.dram.rank1.pwrStateTime::SREF            0                       # Time in different power states (Tick)
system.mem_ctrl.dram.rank1.pwrStateTime::PRE_PDN            0                       # Time in different power states (Tick)
system.mem_ctrl.dram.rank1.pwrStateTime::ACT  13403232750                       # Time in different power states (Tick)
system.mem_ctrl.dram.rank1.pwrStateTime::ACT_PDN            0                       # Time in different power states (Tick)
system.mem_ctrl.power_state.pwrStateResidencyTicks::UNDEFINED  16819057000                       # Cumulative time (in ticks) in various power states (Tick)
system.membus.transDist::ReadReq               322448                       # Transaction distribution (Count)
system.membus.transDist::ReadResp              322448                       # Transaction distribution (Count)
system.membus.transDist::WriteReq                7547                       # Transaction distribution (Count)
system.membus.transDist::WriteResp               7547                       # Transaction distribution (Count)
system.membus.pktCount_system.cpu.icache_port::system.mem_ctrl.port       509818                       # Packet count per connected requestor and responder (Count)
system.membus.pktCount_system.cpu.dcache_port::system.mem_ctrl.port       150172                       # Packet count per connected requestor and responder (Count)
system.membus.pktCount::total                  659990                       # Packet count per connected requestor and responder (Count)
system.membus.pktSize_system.cpu.icache_port::system.mem_ctrl.port      1019636                       # Cumulative packet size per connected requestor and responder (Byte)
system.membus.pktSize_system.cpu.dcache_port::system.mem_ctrl.port      1318204                       # Cumulative packet size per connected requestor and responder (Byte)
system.membus.pktSize::total                  2337840                       # Cumulative packet size per connected requestor and responder (Byte)
system.membus.snoops                                0                       # Total snoops (Count)
system.membus.snoopTraffic                          0                       # Total snoop traffic (Byte)
system.membus.snoopFanout::samples             329995                       # Request fanout histogram (Count)
system.membus.snoopFanout::mean                     0                       # Request fanout histogram (Count)
system.membus.snoopFanout::stdev                    0                       # Request fanout histogram (Count)
system.membus.snoopFanout::underflows               0      0.00%      0.00% # Request fanout histogram (Count)
system.membus.snoopFanout::0                   329995    100.00%    100.00% # Request fanout histogram (Count)
system.membus.snoopFanout::1                        0      0.00%    100.00% # Request fanout histogram (Count)
system.membus.snoopFanout::overflows                0      0.00%    100.00% # Request fanout histogram (Count)
system.membus.snoopFanout::min_value                0                       # Request fanout histogram (Count)
system.membus.snoopFanout::max_value                0                       # Request fanout histogram (Count)
system.membus.snoopFanout::total               329995                       # Request fanout histogram (Count)
system.membus.power_state.pwrStateResidencyTicks::UNDEFINED  16819057000                       # Cumulative time (in ticks) in various power states (Tick)
system.membus.reqLayer0.occupancy           338822000                       # Layer occupancy (ticks) (Tick)
system.membus.reqLayer0.utilization               0.0                       # Layer utilization (Ratio)
system.membus.respLayer0.occupancy          577855500                       # Layer occupancy (ticks) (Tick)
system.membus.respLayer0.utilization              0.0                       # Layer utilization (Ratio)
system.membus.respLayer1.occupancy          194697750                       # Layer occupancy (ticks) (Tick)
system.membus.respLayer1.utilization              0.0                       # Layer utilization (Ratio)
system.membus.snoop_filter.totRequests              0                       # Total number of requests made to the snoop filter. (Count)
system.membus.snoop_filter.hitSingleRequests            0                       # Number of requests hitting in the snoop filter with a single holder of the requested data. (Count)
system.membus.snoop_filter.hitMultiRequests            0                       # Number of requests hitting in the snoop filter with multiple (>1) holders of the requested data. (Count)
system.membus.snoop_filter.totSnoops                0                       # Total number of snoops made to the snoop filter. (Count)
system.membus.snoop_filter.hitSingleSnoops            0                       # Number of snoops hitting in the snoop filter with a single holder of the requested data. (Count)
system.membus.snoop_filter.hitMultiSnoops            0                       # Number of snoops hitting in the snoop filter with multiple (>1) holders of the requested data. (Count)
system.workload.inst.arm                            0                       # number of arm instructions executed (Count)
system.workload.inst.quiesce                        0                       # number of quiesce instructions executed (Count)

---------- End Simulation Statistics   ----------
