
---------- Begin Simulation Statistics ----------
simSeconds                                   0.000053                       # Number of seconds simulated (Second)
simTicks                                     52985000                       # Number of ticks simulated (Tick)
finalTick                                    52985000                       # Number of ticks from beginning of simulation (restored from checkpoints and never reset) (Tick)
simFreq                                  1000000000000                       # The number of ticks per simulated second ((Tick/Second))
hostSeconds                                      0.02                       # Real time elapsed on the host (Second)
hostTickRate                               2382419065                       # The number of ticks simulated per host second (ticks/s) ((Tick/Second))
hostMemory                                     665508                       # Number of bytes of host memory used (Byte)
simInsts                                        12710                       # Number of instructions simulated (Count)
simOps                                          12710                       # Number of ops (including micro ops) simulated (Count)
hostInstRate                                   568604                       # Simulator instruction rate (inst/s) ((Count/Second))
hostOpRate                                     568426                       # Simulator op (including micro ops) rate (op/s) ((Count/Second))
system.clk_domain.clock                          1000                       # Clock period in ticks (Tick)
system.clk_domain.voltage_domain.voltage            1                       # Voltage in Volts (Volt)
system.cpu.numCycles                            52985                       # Number of cpu cycles simulated (Cycle)
system.cpu.cpi                               4.168765                       # CPI: cycles per instruction (core level) ((Cycle/Count))
system.cpu.ipc                               0.239879                       # IPC: instructions per cycle (core level) ((Count/Cycle))
system.cpu.numWorkItemsStarted                      0                       # Number of work items this cpu started (Count)
system.cpu.numWorkItemsCompleted                    0                       # Number of work items this cpu completed (Count)
system.cpu.issuedInstType_0::No_OpClass             0      0.00%      0.00% # Number of insts issued per FU, per thread (Count)
system.cpu.issuedInstType_0::IntAlu              7902     62.17%     62.17% # Number of insts issued per FU, per thread (Count)
system.cpu.issuedInstType_0::IntMult                7      0.06%     62.23% # Number of insts issued per FU, per thread (Count)
system.cpu.issuedInstType_0::IntDiv                 2      0.02%     62.24% # Number of insts issued per FU, per thread (Count)
system.cpu.issuedInstType_0::FloatAdd               0      0.00%     62.24% # Number of insts issued per FU, per thread (Count)
system.cpu.issuedInstType_0::FloatCmp               0      0.00%     62.24% # Number of insts issued per FU, per thread (Count)
system.cpu.issuedInstType_0::FloatCvt               0      0.00%     62.24% # Number of insts issued per FU, per thread (Count)
system.cpu.issuedInstType_0::FloatMult              0      0.00%     62.24% # Number of insts issued per FU, per thread (Count)
system.cpu.issuedInstType_0::FloatMultAcc            0      0.00%     62.24% # Number of insts issued per FU, per thread (Count)
system.cpu.issuedInstType_0::FloatDiv               0      0.00%     62.24% # Number of insts issued per FU, per thread (Count)
system.cpu.issuedInstType_0::FloatMisc              0      0.00%     62.24% # Number of insts issued per FU, per thread (Count)
system.cpu.issuedInstType_0::FloatSqrt              0      0.00%     62.24% # Number of insts issued per FU, per thread (Count)
system.cpu.issuedInstType_0::SimdAdd               64      0.50%     62.75% # Number of insts issued per FU, per thread (Count)
system.cpu.issuedInstType_0::SimdAddAcc             0      0.00%     62.75% # Number of insts issued per FU, per thread (Count)
system.cpu.issuedInstType_0::SimdAlu                0      0.00%     62.75% # Number of insts issued per FU, per thread (Count)
system.cpu.issuedInstType_0::SimdCmp                0      0.00%     62.75% # Number of insts issued per FU, per thread (Count)
system.cpu.issuedInstType_0::SimdCvt                0      0.00%     62.75% # Number of insts issued per FU, per thread (Count)
system.cpu.issuedInstType_0::SimdMisc              38      0.30%     63.04% # Number of insts issued per FU, per thread (Count)
system.cpu.issuedInstType_0::SimdMult              96      0.76%     63.80% # Number of insts issued per FU, per thread (Count)
system.cpu.issuedInstType_0::SimdMultAcc           64      0.50%     64.30% # Number of insts issued per FU, per thread (Count)
system.cpu.issuedInstType_0::SimdMatMultAcc            0      0.00%     64.30% # Number of insts issued per FU, per thread (Count)
system.cpu.issuedInstType_0::SimdShift             64      0.50%     64.81% # Number of insts issued per FU, per thread (Count)
system.cpu.issuedInstType_0::SimdShiftAcc            0      0.00%     64.81% # Number of insts issued per FU, per thread (Count)
system.cpu.issuedInstType_0::SimdDiv                0      0.00%     64.81% # Number of insts issued per FU, per thread (Count)
system.cpu.issuedInstType_0::SimdSqrt               0      0.00%     64.81% # Number of insts issued per FU, per thread (Count)
system.cpu.issuedInstType_0::SimdFloatAdd           64      0.50%     65.31% # Number of insts issued per FU, per thread (Count)
system.cpu.issuedInstType_0::SimdFloatAlu            0      0.00%     65.31% # Number of insts issued per FU, per thread (Count)
system.cpu.issuedInstType_0::SimdFloatCmp            0      0.00%     65.31% # Number of insts issued per FU, per thread (Count)
system.cpu.issuedInstType_0::SimdFloatCvt           64      0.50%     65.81% # Number of insts issued per FU, per thread (Count)
system.cpu.issuedInstType_0::SimdFloatDiv            0      0.00%     65.81% # Number of insts issued per FU, per thread (Count)
system.cpu.issuedInstType_0::SimdFloatMisc            0      0.00%     65.81% # Number of insts issued per FU, per thread (Count)
system.cpu.issuedInstType_0::SimdFloatMult            0      0.00%     65.81% # Number of insts issued per FU, per thread (Count)
system.cpu.issuedInstType_0::SimdFloatMultAcc          512      4.03%     69.84% # Number of insts issued per FU, per thread (Count)
system.cpu.issuedInstType_0::SimdFloatMatMultAcc            0      0.00%     69.84% # Number of insts issued per FU, per thread (Count)
system.cpu.issuedInstType_0::SimdFloatSqrt            0      0.00%     69.84% # Number of insts issued per FU, per thread (Count)
system.cpu.issuedInstType_0::SimdReduceAdd            0      0.00%     69.84% # Number of insts issued per FU, per thread (Count)
system.cpu.issuedInstType_0::SimdReduceAlu            0      0.00%     69.84% # Number of insts issued per FU, per thread (Count)
system.cpu.issuedInstType_0::SimdReduceCmp            0      0.00%     69.84% # Number of insts issued per FU, per thread (Count)
system.cpu.issuedInstType_0::SimdFloatReduceAdd            0      0.00%     69.84% # Number of insts issued per FU, per thread (Count)
system.cpu.issuedInstType_0::SimdFloatReduceCmp            0      0.00%     69.84% # Number of insts issued per FU, per thread (Count)
system.cpu.issuedInstType_0::SimdAes                0      0.00%     69.84% # Number of insts issued per FU, per thread (Count)
system.cpu.issuedInstType_0::SimdAesMix             0      0.00%     69.84% # Number of insts issued per FU, per thread (Count)
system.cpu.issuedInstType_0::SimdSha1Hash            0      0.00%     69.84% # Number of insts issued per FU, per thread (Count)
system.cpu.issuedInstType_0::SimdSha1Hash2            0      0.00%     69.84% # Number of insts issued per FU, per thread (Count)
system.cpu.issuedInstType_0::SimdSha256Hash            0      0.00%     69.84% # Number of insts issued per FU, per thread (Count)
system.cpu.issuedInstType_0::SimdSha256Hash2            0      0.00%     69.84% # Number of insts issued per FU, per thread (Count)
system.cpu.issuedInstType_0::SimdShaSigma2            0      0.00%     69.84% # Number of insts issued per FU, per thread (Count)
system.cpu.issuedInstType_0::SimdShaSigma3            0      0.00%     69.84% # Number of insts issued per FU, per thread (Count)
system.cpu.issuedInstType_0::SimdSha3               0      0.00%     69.84% # Number of insts issued per FU, per thread (Count)
system.cpu.issuedInstType_0::SimdSm4e               0      0.00%     69.84% # Number of insts issued per FU, per thread (Count)
system.cpu.issuedInstType_0::SimdCrc                0      0.00%     69.84% # Number of insts issued per FU, per thread (Count)
system.cpu.issuedInstType_0::SimdPredAlu            0      0.00%     69.84% # Number of insts issued per FU, per thread (Count)
system.cpu.issuedInstType_0::SimdDotProd            0      0.00%     69.84% # Number of insts issued per FU, per thread (Count)
system.cpu.issuedInstType_0::Matrix                 0      0.00%     69.84% # Number of insts issued per FU, per thread (Count)
system.cpu.issuedInstType_0::MatrixMov              0      0.00%     69.84% # Number of insts issued per FU, per thread (Count)
system.cpu.issuedInstType_0::MatrixOP               0      0.00%     69.84% # Number of insts issued per FU, per thread (Count)
system.cpu.issuedInstType_0::MemRead              437      3.44%     73.28% # Number of insts issued per FU, per thread (Count)
system.cpu.issuedInstType_0::MemWrite             866      6.81%     80.09% # Number of insts issued per FU, per thread (Count)
system.cpu.issuedInstType_0::FloatMemRead          257      2.02%     82.12% # Number of insts issued per FU, per thread (Count)
system.cpu.issuedInstType_0::FloatMemWrite            0      0.00%     82.12% # Number of insts issued per FU, per thread (Count)
system.cpu.issuedInstType_0::InstPrefetch            0      0.00%     82.12% # Number of insts issued per FU, per thread (Count)
system.cpu.issuedInstType_0::SimdUnitStrideLoad         1024      8.06%     90.17% # Number of insts issued per FU, per thread (Count)
system.cpu.issuedInstType_0::SimdUnitStrideStore          576      4.53%     94.70% # Number of insts issued per FU, per thread (Count)
system.cpu.issuedInstType_0::SimdUnitStrideMaskLoad            0      0.00%     94.70% # Number of insts issued per FU, per thread (Count)
system.cpu.issuedInstType_0::SimdUnitStrideMaskStore            0      0.00%     94.70% # Number of insts issued per FU, per thread (Count)
system.cpu.issuedInstType_0::SimdStridedLoad            0      0.00%     94.70% # Number of insts issued per FU, per thread (Count)
system.cpu.issuedInstType_0::SimdStridedStore            0      0.00%     94.70% # Number of insts issued per FU, per thread (Count)
system.cpu.issuedInstType_0::SimdIndexedLoad            0      0.00%     94.70% # Number of insts issued per FU, per thread (Count)
system.cpu.issuedInstType_0::SimdIndexedStore            0      0.00%     94.70% # Number of insts issued per FU, per thread (Count)
system.cpu.issuedInstType_0::SimdWholeRegisterLoad            0      0.00%     94.70% # Number of insts issued per FU, per thread (Count)
system.cpu.issuedInstType_0::SimdWholeRegisterStore            0      0.00%     94.70% # Number of insts issued per FU, per thread (Count)
system.cpu.issuedInstType_0::SimdUnitStrideFaultOnlyFirstLoad            0      0.00%     94.70% # Number of insts issued per FU, per thread (Count)
system.cpu.issuedInstType_0::SimdUnitStrideSegmentedLoad            0      0.00%     94.70% # Number of insts issued per FU, per thread (Count)
system.cpu.issuedInstType_0::SimdUnitStrideSegmentedStore            0      0.00%     94.70% # Number of insts issued per FU, per thread (Count)
system.cpu.issuedInstType_0::SimdUnitStrideSegmentedFaultOnlyFirstLoad            0      0.00%     94.70% # Number of insts issued per FU, per thread (Count)
system.cpu.issuedInstType_0::SimdStrideSegmentedLoad            0      0.00%     94.70% # Number of insts issued per FU, per thread (Count)
system.cpu.issuedInstType_0::SimdStrideSegmentedStore            0      0.00%     94.70% # Number of insts issued per FU, per thread (Count)
system.cpu.issuedInstType_0::SimdExt                0      0.00%     94.70% # Number of insts issued per FU, per thread (Count)
system.cpu.issuedInstType_0::SimdFloatExt            0      0.00%     94.70% # Number of insts issued per FU, per thread (Count)
system.cpu.issuedInstType_0::SimdConfig           673      5.30%    100.00% # Number of insts issued per FU, per thread (Count)
system.cpu.issuedInstType_0::SimdBf16Add            0      0.00%    100.00% # Number of insts issued per FU, per thread (Count)
system.cpu.issuedInstType_0::SimdBf16Cmp            0      0.00%    100.00% # Number of insts issued per FU, per thread (Count)
system.cpu.issuedInstType_0::SimdBf16Cvt            0      0.00%    100.00% # Number of insts issued per FU, per thread (Count)
system.cpu.issuedInstType_0::SimdBf16DotProd            0      0.00%    100.00% # Number of insts issued per FU, per thread (Count)
system.cpu.issuedInstType_0::SimdBf16MatMultAcc            0      0.00%    100.00% # Number of insts issued per FU, per thread (Count)
system.cpu.issuedInstType_0::SimdBf16Mult            0      0.00%    100.00% # Number of insts issued per FU, per thread (Count)
system.cpu.issuedInstType_0::SimdBf16MultAcc            0      0.00%    100.00% # Number of insts issued per FU, per thread (Count)
system.cpu.issuedInstType_0::Bf16Cvt                0      0.00%    100.00% # Number of insts issued per FU, per thread (Count)
system.cpu.issuedInstType_0::System                 0      0.00%    100.00% # Number of insts issued per FU, per thread (Count)
system.cpu.issuedInstType_0::total              12710                       # Number of insts issued per FU, per thread (Count)
system.cpu.commitStats0.numInsts                12710                       # Number of instructions committed (thread level) (Count)
system.cpu.commitStats0.numOps                  12710                       # Number of ops (including micro ops) committed (thread level) (Count)
system.cpu.commitStats0.numInstsNotNOP          12710                       # Number of instructions committed excluding NOPs or prefetches (Count)
system.cpu.commitStats0.numOpsNotNOP            12710                       # Number of Ops (including micro ops) Simulated (Count)
system.cpu.commitStats0.numUserInsts            12710                       # Numbrer of instructions committed in user mode (Count)
system.cpu.commitStats0.numUserOps              12710                       # Number of ops committed in user mode (Count)
system.cpu.commitStats0.ratioUserInsts              1                       # Ratio of instructions committed in user mode (Ratio)
system.cpu.commitStats0.ratioUserOps                1                       # Ratio of ops committed in user mode (Ratio)
system.cpu.commitStats0.cpi                  4.168765                       # CPI: cycles per instruction (thread level) ((Cycle/Count))
system.cpu.commitStats0.ipc                  0.239879                       # IPC: instructions per cycle (thread level) ((Count/Cycle))
system.cpu.commitStats0.numMemRefs               3160                       # Number of memory references committed (Count)
system.cpu.commitStats0.numFpInsts                257                       # Number of float instructions (Count)
system.cpu.commitStats0.numIntInsts             10092                       # Number of integer instructions (Count)
system.cpu.commitStats0.numLoadInsts             1718                       # Number of load instructions (Count)
system.cpu.commitStats0.numStoreInsts            1442                       # Number of store instructions (Count)
system.cpu.commitStats0.numVecInsts              3239                       # Number of vector instructions (Count)
system.cpu.commitStats0.committedInstType::No_OpClass            0      0.00%      0.00% # Class of committed instruction. (Count)
system.cpu.commitStats0.committedInstType::IntAlu         7902     62.17%     62.17% # Class of committed instruction. (Count)
system.cpu.commitStats0.committedInstType::IntMult            7      0.06%     62.23% # Class of committed instruction. (Count)
system.cpu.commitStats0.committedInstType::IntDiv            2      0.02%     62.24% # Class of committed instruction. (Count)
system.cpu.commitStats0.committedInstType::FloatAdd            0      0.00%     62.24% # Class of committed instruction. (Count)
system.cpu.commitStats0.committedInstType::FloatCmp            0      0.00%     62.24% # Class of committed instruction. (Count)
system.cpu.commitStats0.committedInstType::FloatCvt            0      0.00%     62.24% # Class of committed instruction. (Count)
system.cpu.commitStats0.committedInstType::FloatMult            0      0.00%     62.24% # Class of committed instruction. (Count)
system.cpu.commitStats0.committedInstType::FloatMultAcc            0      0.00%     62.24% # Class of committed instruction. (Count)
system.cpu.commitStats0.committedInstType::FloatDiv            0      0.00%     62.24% # Class of committed instruction. (Count)
system.cpu.commitStats0.committedInstType::FloatMisc            0      0.00%     62.24% # Class of committed instruction. (Count)
system.cpu.commitStats0.committedInstType::FloatSqrt            0      0.00%     62.24% # Class of committed instruction. (Count)
system.cpu.commitStats0.committedInstType::SimdAdd           64      0.50%     62.75% # Class of committed instruction. (Count)
system.cpu.commitStats0.committedInstType::SimdAddAcc            0      0.00%     62.75% # Class of committed instruction. (Count)
system.cpu.commitStats0.committedInstType::SimdAlu            0      0.00%     62.75% # Class of committed instruction. (Count)
system.cpu.commitStats0.committedInstType::SimdCmp            0      0.00%     62.75% # Class of committed instruction. (Count)
system.cpu.commitStats0.committedInstType::SimdCvt            0      0.00%     62.75% # Class of committed instruction. (Count)
system.cpu.commitStats0.committedInstType::SimdMisc           38      0.30%     63.04% # Class of committed instruction. (Count)
system.cpu.commitStats0.committedInstType::SimdMult           96      0.76%     63.80% # Class of committed instruction. (Count)
system.cpu.commitStats0.committedInstType::SimdMultAcc           64      0.50%     64.30% # Class of committed instruction. (Count)
system.cpu.commitStats0.committedInstType::SimdMatMultAcc            0      0.00%     64.30% # Class of committed instruction. (Count)
system.cpu.commitStats0.committedInstType::SimdShift           64      0.50%     64.81% # Class of committed instruction. (Count)
system.cpu.commitStats0.committedInstType::SimdShiftAcc            0      0.00%     64.81% # Class of committed instruction. (Count)
system.cpu.commitStats0.committedInstType::SimdDiv            0      0.00%     64.81% # Class of committed instruction. (Count)
system.cpu.commitStats0.committedInstType::SimdSqrt            0      0.00%     64.81% # Class of committed instruction. (Count)
system.cpu.commitStats0.committedInstType::SimdFloatAdd           64      0.50%     65.31% # Class of committed instruction. (Count)
system.cpu.commitStats0.committedInstType::SimdFloatAlu            0      0.00%     65.31% # Class of committed instruction. (Count)
system.cpu.commitStats0.committedInstType::SimdFloatCmp            0      0.00%     65.31% # Class of committed instruction. (Count)
system.cpu.commitStats0.committedInstType::SimdFloatCvt           64      0.50%     65.81% # Class of committed instruction. (Count)
system.cpu.commitStats0.committedInstType::SimdFloatDiv            0      0.00%     65.81% # Class of committed instruction. (Count)
system.cpu.commitStats0.committedInstType::SimdFloatMisc            0      0.00%     65.81% # Class of committed instruction. (Count)
system.cpu.commitStats0.committedInstType::SimdFloatMult            0      0.00%     65.81% # Class of committed instruction. (Count)
system.cpu.commitStats0.committedInstType::SimdFloatMultAcc          512      4.03%     69.84% # Class of committed instruction. (Count)
system.cpu.commitStats0.committedInstType::SimdFloatMatMultAcc            0      0.00%     69.84% # Class of committed instruction. (Count)
system.cpu.commitStats0.committedInstType::SimdFloatSqrt            0      0.00%     69.84% # Class of committed instruction. (Count)
system.cpu.commitStats0.committedInstType::SimdReduceAdd            0      0.00%     69.84% # Class of committed instruction. (Count)
system.cpu.commitStats0.committedInstType::SimdReduceAlu            0      0.00%     69.84% # Class of committed instruction. (Count)
system.cpu.commitStats0.committedInstType::SimdReduceCmp            0      0.00%     69.84% # Class of committed instruction. (Count)
system.cpu.commitStats0.committedInstType::SimdFloatReduceAdd            0      0.00%     69.84% # Class of committed instruction. (Count)
system.cpu.commitStats0.committedInstType::SimdFloatReduceCmp            0      0.00%     69.84% # Class of committed instruction. (Count)
system.cpu.commitStats0.committedInstType::SimdAes            0      0.00%     69.84% # Class of committed instruction. (Count)
system.cpu.commitStats0.committedInstType::SimdAesMix            0      0.00%     69.84% # Class of committed instruction. (Count)
system.cpu.commitStats0.committedInstType::SimdSha1Hash            0      0.00%     69.84% # Class of committed instruction. (Count)
system.cpu.commitStats0.committedInstType::SimdSha1Hash2            0      0.00%     69.84% # Class of committed instruction. (Count)
system.cpu.commitStats0.committedInstType::SimdSha256Hash            0      0.00%     69.84% # Class of committed instruction. (Count)
system.cpu.commitStats0.committedInstType::SimdSha256Hash2            0      0.00%     69.84% # Class of committed instruction. (Count)
system.cpu.commitStats0.committedInstType::SimdShaSigma2            0      0.00%     69.84% # Class of committed instruction. (Count)
system.cpu.commitStats0.committedInstType::SimdShaSigma3            0      0.00%     69.84% # Class of committed instruction. (Count)
system.cpu.commitStats0.committedInstType::SimdSha3            0      0.00%     69.84% # Class of committed instruction. (Count)
system.cpu.commitStats0.committedInstType::SimdSm4e            0      0.00%     69.84% # Class of committed instruction. (Count)
system.cpu.commitStats0.committedInstType::SimdCrc            0      0.00%     69.84% # Class of committed instruction. (Count)
system.cpu.commitStats0.committedInstType::SimdPredAlu            0      0.00%     69.84% # Class of committed instruction. (Count)
system.cpu.commitStats0.committedInstType::SimdDotProd            0      0.00%     69.84% # Class of committed instruction. (Count)
system.cpu.commitStats0.committedInstType::Matrix            0      0.00%     69.84% # Class of committed instruction. (Count)
system.cpu.commitStats0.committedInstType::MatrixMov            0      0.00%     69.84% # Class of committed instruction. (Count)
system.cpu.commitStats0.committedInstType::MatrixOP            0      0.00%     69.84% # Class of committed instruction. (Count)
system.cpu.commitStats0.committedInstType::MemRead          437      3.44%     73.28% # Class of committed instruction. (Count)
system.cpu.commitStats0.committedInstType::MemWrite          866      6.81%     80.09% # Class of committed instruction. (Count)
system.cpu.commitStats0.committedInstType::FloatMemRead          257      2.02%     82.12% # Class of committed instruction. (Count)
system.cpu.commitStats0.committedInstType::FloatMemWrite            0      0.00%     82.12% # Class of committed instruction. (Count)
system.cpu.commitStats0.committedInstType::InstPrefetch            0      0.00%     82.12% # Class of committed instruction. (Count)
system.cpu.commitStats0.committedInstType::SimdUnitStrideLoad         1024      8.06%     90.17% # Class of committed instruction. (Count)
system.cpu.commitStats0.committedInstType::SimdUnitStrideStore          576      4.53%     94.70% # Class of committed instruction. (Count)
system.cpu.commitStats0.committedInstType::SimdUnitStrideMaskLoad            0      0.00%     94.70% # Class of committed instruction. (Count)
system.cpu.commitStats0.committedInstType::SimdUnitStrideMaskStore            0      0.00%     94.70% # Class of committed instruction. (Count)
system.cpu.commitStats0.committedInstType::SimdStridedLoad            0      0.00%     94.70% # Class of committed instruction. (Count)
system.cpu.commitStats0.committedInstType::SimdStridedStore            0      0.00%     94.70% # Class of committed instruction. (Count)
system.cpu.commitStats0.committedInstType::SimdIndexedLoad            0      0.00%     94.70% # Class of committed instruction. (Count)
system.cpu.commitStats0.committedInstType::SimdIndexedStore            0      0.00%     94.70% # Class of committed instruction. (Count)
system.cpu.commitStats0.committedInstType::SimdWholeRegisterLoad            0      0.00%     94.70% # Class of committed instruction. (Count)
system.cpu.commitStats0.committedInstType::SimdWholeRegisterStore            0      0.00%     94.70% # Class of committed instruction. (Count)
system.cpu.commitStats0.committedInstType::SimdUnitStrideFaultOnlyFirstLoad            0      0.00%     94.70% # Class of committed instruction. (Count)
system.cpu.commitStats0.committedInstType::SimdUnitStrideSegmentedLoad            0      0.00%     94.70% # Class of committed instruction. (Count)
system.cpu.commitStats0.committedInstType::SimdUnitStrideSegmentedStore            0      0.00%     94.70% # Class of committed instruction. (Count)
system.cpu.commitStats0.committedInstType::SimdUnitStrideSegmentedFaultOnlyFirstLoad            0      0.00%     94.70% # Class of committed instruction. (Count)
system.cpu.commitStats0.committedInstType::SimdStrideSegmentedLoad            0      0.00%     94.70% # Class of committed instruction. (Count)
system.cpu.commitStats0.committedInstType::SimdStrideSegmentedStore            0      0.00%     94.70% # Class of committed instruction. (Count)
system.cpu.commitStats0.committedInstType::SimdExt            0      0.00%     94.70% # Class of committed instruction. (Count)
system.cpu.commitStats0.committedInstType::SimdFloatExt            0      0.00%     94.70% # Class of committed instruction. (Count)
system.cpu.commitStats0.committedInstType::SimdConfig          673      5.30%    100.00% # Class of committed instruction. (Count)
system.cpu.commitStats0.committedInstType::SimdBf16Add            0      0.00%    100.00% # Class of committed instruction. (Count)
system.cpu.commitStats0.committedInstType::SimdBf16Cmp            0      0.00%    100.00% # Class of committed instruction. (Count)
system.cpu.commitStats0.committedInstType::SimdBf16Cvt            0      0.00%    100.00% # Class of committed instruction. (Count)
system.cpu.commitStats0.committedInstType::SimdBf16DotProd            0      0.00%    100.00% # Class of committed instruction. (Count)
system.cpu.commitStats0.committedInstType::SimdBf16MatMultAcc            0      0.00%    100.00% # Class of committed instruction. (Count)
system.cpu.commitStats0.committedInstType::SimdBf16Mult            0      0.00%    100.00% # Class of committed instruction. (Count)
system.cpu.commitStats0.committedInstType::SimdBf16MultAcc            0      0.00%    100.00% # Class of committed instruction. (Count)
system.cpu.commitStats0.committedInstType::Bf16Cvt            0      0.00%    100.00% # Class of committed instruction. (Count)
system.cpu.commitStats0.committedInstType::System            0      0.00%    100.00% # Class of committed instruction. (Count)
system.cpu.commitStats0.committedInstType::total        12710                       # Class of committed instruction. (Count)
system.cpu.commitStats0.committedControl::IsControl         2282                       # Class of control type instructions committed (Count)
system.cpu.commitStats0.committedControl::IsDirectControl         1507                       # Class of control type instructions committed (Count)
system.cpu.commitStats0.committedControl::IsIndirectControl          775                       # Class of control type instructions committed (Count)
system.cpu.commitStats0.committedControl::IsCondControl         1375                       # Class of control type instructions committed (Count)
system.cpu.commitStats0.committedControl::IsUncondControl          907                       # Class of control type instructions committed (Count)
system.cpu.commitStats0.committedControl::IsCall           85                       # Class of control type instructions committed (Count)
system.cpu.commitStats0.committedControl::IsReturn           84                       # Class of control type instructions committed (Count)
system.cpu.commitStats0.functionCalls              85                       # Number of function calls committed (Count)
system.cpu.commitStats0.numCallsReturns           169                       # Number of function calls and returns committed (Count)
system.cpu.dcache.demandHits::cpu.data           3588                       # number of demand (read+write) hits (Count)
system.cpu.dcache.demandHits::total              3588                       # number of demand (read+write) hits (Count)
system.cpu.dcache.overallHits::cpu.data          3588                       # number of overall hits (Count)
system.cpu.dcache.overallHits::total             3588                       # number of overall hits (Count)
system.cpu.dcache.demandMisses::cpu.data          100                       # number of demand (read+write) misses (Count)
system.cpu.dcache.demandMisses::total             100                       # number of demand (read+write) misses (Count)
system.cpu.dcache.overallMisses::cpu.data          100                       # number of overall misses (Count)
system.cpu.dcache.overallMisses::total            100                       # number of overall misses (Count)
system.cpu.dcache.demandMissLatency::cpu.data      5700000                       # number of demand (read+write) miss ticks (Tick)
system.cpu.dcache.demandMissLatency::total      5700000                       # number of demand (read+write) miss ticks (Tick)
system.cpu.dcache.overallMissLatency::cpu.data      5700000                       # number of overall miss ticks (Tick)
system.cpu.dcache.overallMissLatency::total      5700000                       # number of overall miss ticks (Tick)
system.cpu.dcache.demandAccesses::cpu.data         3688                       # number of demand (read+write) accesses (Count)
system.cpu.dcache.demandAccesses::total          3688                       # number of demand (read+write) accesses (Count)
system.cpu.dcache.overallAccesses::cpu.data         3688                       # number of overall (read+write) accesses (Count)
system.cpu.dcache.overallAccesses::total         3688                       # number of overall (read+write) accesses (Count)
system.cpu.dcache.demandMissRate::cpu.data     0.027115                       # miss rate for demand accesses (Ratio)
system.cpu.dcache.demandMissRate::total      0.027115                       # miss rate for demand accesses (Ratio)
system.cpu.dcache.overallMissRate::cpu.data     0.027115                       # miss rate for overall accesses (Ratio)
system.cpu.dcache.overallMissRate::total     0.027115                       # miss rate for overall accesses (Ratio)
system.cpu.dcache.demandAvgMissLatency::cpu.data        57000                       # average overall miss latency in ticks ((Tick/Count))
system.cpu.dcache.demandAvgMissLatency::total        57000                       # average overall miss latency in ticks ((Tick/Count))
system.cpu.dcache.overallAvgMissLatency::cpu.data        57000                       # average overall miss latency ((Tick/Count))
system.cpu.dcache.overallAvgMissLatency::total        57000                       # average overall miss latency ((Tick/Count))
system.cpu.dcache.blockedCycles::no_mshrs            0                       # number of cycles access was blocked (Cycle)
system.cpu.dcache.blockedCycles::no_wbuffers            0                       # number of cycles access was blocked (Cycle)
system.cpu.dcache.blockedCycles::no_targets            0                       # number of cycles access was blocked (Cycle)
system.cpu.dcache.blockedCauses::no_mshrs            0                       # number of times access was blocked (Count)
system.cpu.dcache.blockedCauses::no_wbuffers            0                       # number of times access was blocked (Count)
system.cpu.dcache.blockedCauses::no_targets            0                       # number of times access was blocked (Count)
system.cpu.dcache.avgBlocked::no_mshrs            nan                       # average number of cycles each access was blocked ((Cycle/Count))
system.cpu.dcache.avgBlocked::no_wbuffers          nan                       # average number of cycles each access was blocked ((Cycle/Count))
system.cpu.dcache.avgBlocked::no_targets          nan                       # average number of cycles each access was blocked ((Cycle/Count))
system.cpu.dcache.demandMshrMisses::cpu.data          100                       # number of demand (read+write) MSHR misses (Count)
system.cpu.dcache.demandMshrMisses::total          100                       # number of demand (read+write) MSHR misses (Count)
system.cpu.dcache.overallMshrMisses::cpu.data          100                       # number of overall MSHR misses (Count)
system.cpu.dcache.overallMshrMisses::total          100                       # number of overall MSHR misses (Count)
system.cpu.dcache.demandMshrMissLatency::cpu.data      5500000                       # number of demand (read+write) MSHR miss ticks (Tick)
system.cpu.dcache.demandMshrMissLatency::total      5500000                       # number of demand (read+write) MSHR miss ticks (Tick)
system.cpu.dcache.overallMshrMissLatency::cpu.data      5500000                       # number of overall MSHR miss ticks (Tick)
system.cpu.dcache.overallMshrMissLatency::total      5500000                       # number of overall MSHR miss ticks (Tick)
system.cpu.dcache.demandMshrMissRate::cpu.data     0.027115                       # mshr miss ratio for demand accesses (Ratio)
system.cpu.dcache.demandMshrMissRate::total     0.027115                       # mshr miss ratio for demand accesses (Ratio)
system.cpu.dcache.overallMshrMissRate::cpu.data     0.027115                       # mshr miss ratio for overall accesses (Ratio)
system.cpu.dcache.overallMshrMissRate::total     0.027115                       # mshr miss ratio for overall accesses (Ratio)
system.cpu.dcache.demandAvgMshrMissLatency::cpu.data        55000                       # average overall mshr miss latency ((Tick/Count))
system.cpu.dcache.demandAvgMshrMissLatency::total        55000                       # average overall mshr miss latency ((Tick/Count))
system.cpu.dcache.overallAvgMshrMissLatency::cpu.data        55000                       # average overall mshr miss latency ((Tick/Count))
system.cpu.dcache.overallAvgMshrMissLatency::total        55000                       # average overall mshr miss latency ((Tick/Count))
system.cpu.dcache.replacements                      0                       # number of replacements (Count)
system.cpu.dcache.ReadReq.hits::cpu.data         1960                       # number of ReadReq hits (Count)
system.cpu.dcache.ReadReq.hits::total            1960                       # number of ReadReq hits (Count)
system.cpu.dcache.ReadReq.misses::cpu.data           14                       # number of ReadReq misses (Count)
system.cpu.dcache.ReadReq.misses::total            14                       # number of ReadReq misses (Count)
system.cpu.dcache.ReadReq.missLatency::cpu.data       798000                       # number of ReadReq miss ticks (Tick)
system.cpu.dcache.ReadReq.missLatency::total       798000                       # number of ReadReq miss ticks (Tick)
system.cpu.dcache.ReadReq.accesses::cpu.data         1974                       # number of ReadReq accesses(hits+misses) (Count)
system.cpu.dcache.ReadReq.accesses::total         1974                       # number of ReadReq accesses(hits+misses) (Count)
system.cpu.dcache.ReadReq.missRate::cpu.data     0.007092                       # miss rate for ReadReq accesses (Ratio)
system.cpu.dcache.ReadReq.missRate::total     0.007092                       # miss rate for ReadReq accesses (Ratio)
system.cpu.dcache.ReadReq.avgMissLatency::cpu.data        57000                       # average ReadReq miss latency ((Tick/Count))
system.cpu.dcache.ReadReq.avgMissLatency::total        57000                       # average ReadReq miss latency ((Tick/Count))
system.cpu.dcache.ReadReq.mshrMisses::cpu.data           14                       # number of ReadReq MSHR misses (Count)
system.cpu.dcache.ReadReq.mshrMisses::total           14                       # number of ReadReq MSHR misses (Count)
system.cpu.dcache.ReadReq.mshrMissLatency::cpu.data       770000                       # number of ReadReq MSHR miss ticks (Tick)
system.cpu.dcache.ReadReq.mshrMissLatency::total       770000                       # number of ReadReq MSHR miss ticks (Tick)
system.cpu.dcache.ReadReq.mshrMissRate::cpu.data     0.007092                       # mshr miss rate for ReadReq accesses (Ratio)
system.cpu.dcache.ReadReq.mshrMissRate::total     0.007092                       # mshr miss rate for ReadReq accesses (Ratio)
system.cpu.dcache.ReadReq.avgMshrMissLatency::cpu.data        55000                       # average ReadReq mshr miss latency ((Tick/Count))
system.cpu.dcache.ReadReq.avgMshrMissLatency::total        55000                       # average ReadReq mshr miss latency ((Tick/Count))
system.cpu.dcache.WriteReq.hits::cpu.data         1628                       # number of WriteReq hits (Count)
system.cpu.dcache.WriteReq.hits::total           1628                       # number of WriteReq hits (Count)
system.cpu.dcache.WriteReq.misses::cpu.data           86                       # number of WriteReq misses (Count)
system.cpu.dcache.WriteReq.misses::total           86                       # number of WriteReq misses (Count)
system.cpu.dcache.WriteReq.missLatency::cpu.data      4902000                       # number of WriteReq miss ticks (Tick)
system.cpu.dcache.WriteReq.missLatency::total      4902000                       # number of WriteReq miss ticks (Tick)
system.cpu.dcache.WriteReq.accesses::cpu.data         1714                       # number of WriteReq accesses(hits+misses) (Count)
system.cpu.dcache.WriteReq.accesses::total         1714                       # number of WriteReq accesses(hits+misses) (Count)
system.cpu.dcache.WriteReq.missRate::cpu.data     0.050175                       # miss rate for WriteReq accesses (Ratio)
system.cpu.dcache.WriteReq.missRate::total     0.050175                       # miss rate for WriteReq accesses (Ratio)
system.cpu.dcache.WriteReq.avgMissLatency::cpu.data        57000                       # average WriteReq miss latency ((Tick/Count))
system.cpu.dcache.WriteReq.avgMissLatency::total        57000                       # average WriteReq miss latency ((Tick/Count))
system.cpu.dcache.WriteReq.mshrMisses::cpu.data           86                       # number of WriteReq MSHR misses (Count)
system.cpu.dcache.WriteReq.mshrMisses::total           86                       # number of WriteReq MSHR misses (Count)
system.cpu.dcache.WriteReq.mshrMissLatency::cpu.data      4730000                       # number of WriteReq MSHR miss ticks (Tick)
system.cpu.dcache.WriteReq.mshrMissLatency::total      4730000                       # number of WriteReq MSHR miss ticks (Tick)
system.cpu.dcache.WriteReq.mshrMissRate::cpu.data     0.050175                       # mshr miss rate for WriteReq accesses (Ratio)
system.cpu.dcache.WriteReq.mshrMissRate::total     0.050175                       # mshr miss rate for WriteReq accesses (Ratio)
system.cpu.dcache.WriteReq.avgMshrMissLatency::cpu.data        55000                       # average WriteReq mshr miss latency ((Tick/Count))
system.cpu.dcache.WriteReq.avgMshrMissLatency::total        55000                       # average WriteReq mshr miss latency ((Tick/Count))
system.cpu.dcache.power_state.pwrStateResidencyTicks::UNDEFINED     52985000                       # Cumulative time (in ticks) in various power states (Tick)
system.cpu.dcache.tags.tagsInUse            73.479740                       # Average ticks per tags in use ((Tick/Count))
system.cpu.dcache.tags.totalRefs                 3688                       # Total number of references to valid blocks. (Count)
system.cpu.dcache.tags.sampledRefs                100                       # Sample count of references to valid blocks. (Count)
system.cpu.dcache.tags.avgRefs              36.880000                       # Average number of references to valid blocks. ((Count/Count))
system.cpu.dcache.tags.warmupTick              422000                       # The tick when the warmup percentage was hit. (Tick)
system.cpu.dcache.tags.occupancies::cpu.data    73.479740                       # Average occupied blocks per tick, per requestor ((Count/Tick))
system.cpu.dcache.tags.avgOccs::cpu.data     0.071758                       # Average percentage of cache occupancy ((Ratio/Tick))
system.cpu.dcache.tags.avgOccs::total        0.071758                       # Average percentage of cache occupancy ((Ratio/Tick))
system.cpu.dcache.tags.occupanciesTaskId::1024          100                       # Occupied blocks per task id (Count)
system.cpu.dcache.tags.ageTaskId_1024::0           15                       # Occupied blocks per task id, per block age (Count)
system.cpu.dcache.tags.ageTaskId_1024::1           85                       # Occupied blocks per task id, per block age (Count)
system.cpu.dcache.tags.ratioOccsTaskId::1024     0.097656                       # Ratio of occupied blocks and all blocks, per task id (Ratio)
system.cpu.dcache.tags.tagAccesses               7476                       # Number of tag accesses (Count)
system.cpu.dcache.tags.dataAccesses              7476                       # Number of data accesses (Count)
system.cpu.dcache.tags.power_state.pwrStateResidencyTicks::UNDEFINED     52985000                       # Cumulative time (in ticks) in various power states (Tick)
system.cpu.exec_context.thread_0.numMatAluAccesses            0                       # Number of matrix alu accesses (Count)
system.cpu.exec_context.thread_0.numMatInsts            0                       # Number of matrix instructions (Count)
system.cpu.exec_context.thread_0.numIdleCycles     0.001000                       # Number of idle cycles (Cycle)
system.cpu.exec_context.thread_0.numBusyCycles 52984.999000                       # Number of busy cycles (Cycle)
system.cpu.exec_context.thread_0.notIdleFraction     1.000000                       # Percentage of non-idle cycles (Ratio)
system.cpu.exec_context.thread_0.idleFraction     0.000000                       # Percentage of idle cycles (Ratio)
system.cpu.executeStats0.numInsts               12710                       # Number of executed instructions (Count)
system.cpu.executeStats0.numNop                     0                       # Number of nop insts executed (Count)
system.cpu.executeStats0.numBranches             2282                       # Number of branches executed (Count)
system.cpu.executeStats0.numLoadInsts            1718                       # Number of load instructions executed (Count)
system.cpu.executeStats0.numStoreInsts           1442                       # Number of stores executed (Count)
system.cpu.executeStats0.instRate            0.239879                       # Inst execution rate ((Count/Cycle))
system.cpu.executeStats0.numFpAluAccesses          257                       # Number of float alu accesses (Count)
system.cpu.executeStats0.numFpRegReads            576                       # Number of times the floating registers were read (Count)
system.cpu.executeStats0.numFpRegWrites           257                       # Number of times the floating registers were written (Count)
system.cpu.executeStats0.numIntAluAccesses        10092                       # Number of integer alu accesses (Count)
system.cpu.executeStats0.numIntRegReads         16760                       # Number of times the integer registers were read (Count)
system.cpu.executeStats0.numIntRegWrites         7433                       # Number of times the integer registers were written (Count)
system.cpu.executeStats0.numMemRefs              3160                       # Number of memory refs (Count)
system.cpu.executeStats0.numMiscRegReads         9702                       # Number of times the Misc registers were read (Count)
system.cpu.executeStats0.numMiscRegWrites         2887                       # Number of times the Misc registers were written (Count)
system.cpu.executeStats0.numVecAluAccesses         3239                       # Number of vector alu accesses (Count)
system.cpu.executeStats0.numVecRegReads          2304                       # Number of times the vector registers were read (Count)
system.cpu.executeStats0.numVecRegWrites         1990                       # Number of times the vector registers were written (Count)
system.cpu.executeStats0.numDiscardedOps            0                       # Number of ops (including micro ops) which were discarded before commit (Count)
system.cpu.fetchStats0.numInsts                 12723                       # Number of instructions fetched (thread level) (Count)
system.cpu.fetchStats0.numOps                   12723                       # Number of ops (including micro ops) fetched (thread level) (Count)
system.cpu.fetchStats0.fetchRate             0.240125                       # Number of inst fetches per cycle ((Count/Cycle))
system.cpu.fetchStats0.numBranches               2282                       # Number of branches fetched (Count)
system.cpu.fetchStats0.branchRate            0.043069                       # Number of branch fetches per cycle (Ratio)
system.cpu.fetchStats0.numFetchSuspends             0                       # Number of times Execute suspended instruction fetching (Count)
system.cpu.icache.demandHits::cpu.inst          16726                       # number of demand (read+write) hits (Count)
system.cpu.icache.demandHits::total             16726                       # number of demand (read+write) hits (Count)
system.cpu.icache.overallHits::cpu.inst         16726                       # number of overall hits (Count)
system.cpu.icache.overallHits::total            16726                       # number of overall hits (Count)
system.cpu.icache.demandMisses::cpu.inst          121                       # number of demand (read+write) misses (Count)
system.cpu.icache.demandMisses::total             121                       # number of demand (read+write) misses (Count)
system.cpu.icache.overallMisses::cpu.inst          121                       # number of overall misses (Count)
system.cpu.icache.overallMisses::total            121                       # number of overall misses (Count)
system.cpu.icache.demandMissLatency::cpu.inst      6864000                       # number of demand (read+write) miss ticks (Tick)
system.cpu.icache.demandMissLatency::total      6864000                       # number of demand (read+write) miss ticks (Tick)
system.cpu.icache.overallMissLatency::cpu.inst      6864000                       # number of overall miss ticks (Tick)
system.cpu.icache.overallMissLatency::total      6864000                       # number of overall miss ticks (Tick)
system.cpu.icache.demandAccesses::cpu.inst        16847                       # number of demand (read+write) accesses (Count)
system.cpu.icache.demandAccesses::total         16847                       # number of demand (read+write) accesses (Count)
system.cpu.icache.overallAccesses::cpu.inst        16847                       # number of overall (read+write) accesses (Count)
system.cpu.icache.overallAccesses::total        16847                       # number of overall (read+write) accesses (Count)
system.cpu.icache.demandMissRate::cpu.inst     0.007182                       # miss rate for demand accesses (Ratio)
system.cpu.icache.demandMissRate::total      0.007182                       # miss rate for demand accesses (Ratio)
system.cpu.icache.overallMissRate::cpu.inst     0.007182                       # miss rate for overall accesses (Ratio)
system.cpu.icache.overallMissRate::total     0.007182                       # miss rate for overall accesses (Ratio)
system.cpu.icache.demandAvgMissLatency::cpu.inst 56727.272727                       # average overall miss latency in ticks ((Tick/Count))
system.cpu.icache.demandAvgMissLatency::total 56727.272727                       # average overall miss latency in ticks ((Tick/Count))
system.cpu.icache.overallAvgMissLatency::cpu.inst 56727.272727                       # average overall miss latency ((Tick/Count))
system.cpu.icache.overallAvgMissLatency::total 56727.272727                       # average overall miss latency ((Tick/Count))
system.cpu.icache.blockedCycles::no_mshrs            0                       # number of cycles access was blocked (Cycle)
system.cpu.icache.blockedCycles::no_wbuffers            0                       # number of cycles access was blocked (Cycle)
system.cpu.icache.blockedCycles::no_targets            0                       # number of cycles access was blocked (Cycle)
system.cpu.icache.blockedCauses::no_mshrs            0                       # number of times access was blocked (Count)
system.cpu.icache.blockedCauses::no_wbuffers            0                       # number of times access was blocked (Count)
system.cpu.icache.blockedCauses::no_targets            0                       # number of times access was blocked (Count)
system.cpu.icache.avgBlocked::no_mshrs            nan                       # average number of cycles each access was blocked ((Cycle/Count))
system.cpu.icache.avgBlocked::no_wbuffers          nan                       # average number of cycles each access was blocked ((Cycle/Count))
system.cpu.icache.avgBlocked::no_targets          nan                       # average number of cycles each access was blocked ((Cycle/Count))
system.cpu.icache.demandMshrMisses::cpu.inst          121                       # number of demand (read+write) MSHR misses (Count)
system.cpu.icache.demandMshrMisses::total          121                       # number of demand (read+write) MSHR misses (Count)
system.cpu.icache.overallMshrMisses::cpu.inst          121                       # number of overall MSHR misses (Count)
system.cpu.icache.overallMshrMisses::total          121                       # number of overall MSHR misses (Count)
system.cpu.icache.demandMshrMissLatency::cpu.inst      6622000                       # number of demand (read+write) MSHR miss ticks (Tick)
system.cpu.icache.demandMshrMissLatency::total      6622000                       # number of demand (read+write) MSHR miss ticks (Tick)
system.cpu.icache.overallMshrMissLatency::cpu.inst      6622000                       # number of overall MSHR miss ticks (Tick)
system.cpu.icache.overallMshrMissLatency::total      6622000                       # number of overall MSHR miss ticks (Tick)
system.cpu.icache.demandMshrMissRate::cpu.inst     0.007182                       # mshr miss ratio for demand accesses (Ratio)
system.cpu.icache.demandMshrMissRate::total     0.007182                       # mshr miss ratio for demand accesses (Ratio)
system.cpu.icache.overallMshrMissRate::cpu.inst     0.007182                       # mshr miss ratio for overall accesses (Ratio)
system.cpu.icache.overallMshrMissRate::total     0.007182                       # mshr miss ratio for overall accesses (Ratio)
system.cpu.icache.demandAvgMshrMissLatency::cpu.inst 54727.272727                       # average overall mshr miss latency ((Tick/Count))
system.cpu.icache.demandAvgMshrMissLatency::total 54727.272727                       # average overall mshr miss latency ((Tick/Count))
system.cpu.icache.overallAvgMshrMissLatency::cpu.inst 54727.272727                       # average overall mshr miss latency ((Tick/Count))
system.cpu.icache.overallAvgMshrMissLatency::total 54727.272727                       # average overall mshr miss latency ((Tick/Count))
system.cpu.icache.replacements                      5                       # number of replacements (Count)
system.cpu.icache.ReadReq.hits::cpu.inst        16726                       # number of ReadReq hits (Count)
system.cpu.icache.ReadReq.hits::total           16726                       # number of ReadReq hits (Count)
system.cpu.icache.ReadReq.misses::cpu.inst          121                       # number of ReadReq misses (Count)
system.cpu.icache.ReadReq.misses::total           121                       # number of ReadReq misses (Count)
system.cpu.icache.ReadReq.missLatency::cpu.inst      6864000                       # number of ReadReq miss ticks (Tick)
system.cpu.icache.ReadReq.missLatency::total      6864000                       # number of ReadReq miss ticks (Tick)
system.cpu.icache.ReadReq.accesses::cpu.inst        16847                       # number of ReadReq accesses(hits+misses) (Count)
system.cpu.icache.ReadReq.accesses::total        16847                       # number of ReadReq accesses(hits+misses) (Count)
system.cpu.icache.ReadReq.missRate::cpu.inst     0.007182                       # miss rate for ReadReq accesses (Ratio)
system.cpu.icache.ReadReq.missRate::total     0.007182                       # miss rate for ReadReq accesses (Ratio)
system.cpu.icache.ReadReq.avgMissLatency::cpu.inst 56727.272727                       # average ReadReq miss latency ((Tick/Count))
system.cpu.icache.ReadReq.avgMissLatency::total 56727.272727                       # average ReadReq miss latency ((Tick/Count))
system.cpu.icache.ReadReq.mshrMisses::cpu.inst          121                       # number of ReadReq MSHR misses (Count)
system.cpu.icache.ReadReq.mshrMisses::total          121                       # number of ReadReq MSHR misses (Count)
system.cpu.icache.ReadReq.mshrMissLatency::cpu.inst      6622000                       # number of ReadReq MSHR miss ticks (Tick)
system.cpu.icache.ReadReq.mshrMissLatency::total      6622000                       # number of ReadReq MSHR miss ticks (Tick)
system.cpu.icache.ReadReq.mshrMissRate::cpu.inst     0.007182                       # mshr miss rate for ReadReq accesses (Ratio)
system.cpu.icache.ReadReq.mshrMissRate::total     0.007182                       # mshr miss rate for ReadReq accesses (Ratio)
system.cpu.icache.ReadReq.avgMshrMissLatency::cpu.inst 54727.272727                       # average ReadReq mshr miss latency ((Tick/Count))
system.cpu.icache.ReadReq.avgMshrMissLatency::total 54727.272727                       # average ReadReq mshr miss latency ((Tick/Count))
system.cpu.icache.power_state.pwrStateResidencyTicks::UNDEFINED     52985000                       # Cumulative time (in ticks) in various power states (Tick)
system.cpu.icache.tags.tagsInUse            51.193924                       # Average ticks per tags in use ((Tick/Count))
system.cpu.icache.tags.totalRefs                16847                       # Total number of references to valid blocks. (Count)
system.cpu.icache.tags.sampledRefs                121                       # Sample count of references to valid blocks. (Count)
system.cpu.icache.tags.avgRefs             139.231405                       # Average number of references to valid blocks. ((Count/Count))
system.cpu.icache.tags.warmupTick               77000                       # The tick when the warmup percentage was hit. (Tick)
system.cpu.icache.tags.occupancies::cpu.inst    51.193924                       # Average occupied blocks per tick, per requestor ((Count/Tick))
system.cpu.icache.tags.avgOccs::cpu.inst     0.099988                       # Average percentage of cache occupancy ((Ratio/Tick))
system.cpu.icache.tags.avgOccs::total        0.099988                       # Average percentage of cache occupancy ((Ratio/Tick))
system.cpu.icache.tags.occupanciesTaskId::1024          116                       # Occupied blocks per task id (Count)
system.cpu.icache.tags.ageTaskId_1024::0           63                       # Occupied blocks per task id, per block age (Count)
system.cpu.icache.tags.ageTaskId_1024::1           53                       # Occupied blocks per task id, per block age (Count)
system.cpu.icache.tags.ratioOccsTaskId::1024     0.226562                       # Ratio of occupied blocks and all blocks, per task id (Ratio)
system.cpu.icache.tags.tagAccesses              33815                       # Number of tag accesses (Count)
system.cpu.icache.tags.dataAccesses             33815                       # Number of data accesses (Count)
system.cpu.icache.tags.power_state.pwrStateResidencyTicks::UNDEFINED     52985000                       # Cumulative time (in ticks) in various power states (Tick)
system.cpu.mmu.dtb.readHits                         0                       # read hits (Count)
system.cpu.mmu.dtb.readMisses                       0                       # read misses (Count)
system.cpu.mmu.dtb.readAccesses                     0                       # read accesses (Count)
system.cpu.mmu.dtb.writeHits                        0                       # write hits (Count)
system.cpu.mmu.dtb.writeMisses                      0                       # write misses (Count)
system.cpu.mmu.dtb.writeAccesses                    0                       # write accesses (Count)
system.cpu.mmu.dtb.hits                             0                       # Total TLB (read and write) hits (Count)
system.cpu.mmu.dtb.misses                           0                       # Total TLB (read and write) misses (Count)
system.cpu.mmu.dtb.accesses                         0                       # Total TLB (read and write) accesses (Count)
system.cpu.mmu.dtb.walker.num_4kb_walks             0                       # Completed page walks with 4KB pages (Count)
system.cpu.mmu.dtb.walker.num_64kb_walks            0                       # Completed page walks with 64KB pages (Count)
system.cpu.mmu.dtb.walker.num_2mb_walks             0                       # Completed page walks with 2MB pages (Count)
system.cpu.mmu.dtb.walker.power_state.pwrStateResidencyTicks::UNDEFINED     52985000                       # Cumulative time (in ticks) in various power states (Tick)
system.cpu.mmu.itb.readHits                         0                       # read hits (Count)
system.cpu.mmu.itb.readMisses                       0                       # read misses (Count)
system.cpu.mmu.itb.readAccesses                     0                       # read accesses (Count)
system.cpu.mmu.itb.writeHits                        0                       # write hits (Count)
system.cpu.mmu.itb.writeMisses                      0                       # write misses (Count)
system.cpu.mmu.itb.writeAccesses                    0                       # write accesses (Count)
system.cpu.mmu.itb.hits                             0                       # Total TLB (read and write) hits (Count)
system.cpu.mmu.itb.misses                           0                       # Total TLB (read and write) misses (Count)
system.cpu.mmu.itb.accesses                         0                       # Total TLB (read and write) accesses (Count)
system.cpu.mmu.itb.walker.num_4kb_walks             0                       # Completed page walks with 4KB pages (Count)
system.cpu.mmu.itb.walker.num_64kb_walks            0                       # Completed page walks with 64KB pages (Count)
system.cpu.mmu.itb.walker.num_2mb_walks             0                       # Completed page walks with 2MB pages (Count)
system.cpu.mmu.itb.walker.power_state.pwrStateResidencyTicks::UNDEFINED     52985000                       # Cumulative time (in ticks) in various power states (Tick)
system.cpu.power_state.pwrStateResidencyTicks::ON     52985000                       # Cumulative time (in ticks) in various power states (Tick)
system.cpu.thread_0.numInsts                    12710                       # Number of Instructions committed (Count)
system.cpu.thread_0.numOps                      12710                       # Number of Ops committed (Count)
system.cpu.thread_0.numMemRefs                   3160                       # Number of Memory References (Count)
system.cpu.workload.numSyscalls                    11                       # Number of system calls (Count)
system.mem_ctrl.avgPriority_cpu.inst::samples       121.00                       # Average QoS priority value for accepted requests (Count)
system.mem_ctrl.avgPriority_cpu.data::samples       100.00                       # Average QoS priority value for accepted requests (Count)
system.mem_ctrl.priorityMinLatency       0.000000018750                       # per QoS priority minimum request to response latency (Second)
system.mem_ctrl.priorityMaxLatency       0.000000519000                       # per QoS priority maximum request to response latency (Second)
system.mem_ctrl.numReadWriteTurnArounds             0                       # Number of turnarounds from READ to WRITE (Count)
system.mem_ctrl.numWriteReadTurnArounds             0                       # Number of turnarounds from WRITE to READ (Count)
system.mem_ctrl.numStayReadState                  454                       # Number of times bus staying in READ state (Count)
system.mem_ctrl.numStayWriteState                   0                       # Number of times bus staying in WRITE state (Count)
system.mem_ctrl.readReqs                          221                       # Number of read requests accepted (Count)
system.mem_ctrl.writeReqs                           0                       # Number of write requests accepted (Count)
system.mem_ctrl.readBursts                        221                       # Number of controller read bursts, including those serviced by the write queue (Count)
system.mem_ctrl.writeBursts                         0                       # Number of controller write bursts, including those merged in the write queue (Count)
system.mem_ctrl.servicedByWrQ                       0                       # Number of controller read bursts serviced by the write queue (Count)
system.mem_ctrl.mergedWrBursts                      0                       # Number of controller write bursts merged with an existing one (Count)
system.mem_ctrl.neitherReadNorWriteReqs             0                       # Number of requests that are neither read nor write (Count)
system.mem_ctrl.avgRdQLen                        1.00                       # Average read queue length when enqueuing ((Count/Tick))
system.mem_ctrl.avgWrQLen                        0.00                       # Average write queue length when enqueuing ((Count/Tick))
system.mem_ctrl.numRdRetry                          0                       # Number of times read queue was full causing retry (Count)
system.mem_ctrl.numWrRetry                          0                       # Number of times write queue was full causing retry (Count)
system.mem_ctrl.readPktSize::0                      0                       # Read request sizes (log2) (Count)
system.mem_ctrl.readPktSize::1                      0                       # Read request sizes (log2) (Count)
system.mem_ctrl.readPktSize::2                      0                       # Read request sizes (log2) (Count)
system.mem_ctrl.readPktSize::3                      0                       # Read request sizes (log2) (Count)
system.mem_ctrl.readPktSize::4                      0                       # Read request sizes (log2) (Count)
system.mem_ctrl.readPktSize::5                      0                       # Read request sizes (log2) (Count)
system.mem_ctrl.readPktSize::6                    221                       # Read request sizes (log2) (Count)
system.mem_ctrl.writePktSize::0                     0                       # Write request sizes (log2) (Count)
system.mem_ctrl.writePktSize::1                     0                       # Write request sizes (log2) (Count)
system.mem_ctrl.writePktSize::2                     0                       # Write request sizes (log2) (Count)
system.mem_ctrl.writePktSize::3                     0                       # Write request sizes (log2) (Count)
system.mem_ctrl.writePktSize::4                     0                       # Write request sizes (log2) (Count)
system.mem_ctrl.writePktSize::5                     0                       # Write request sizes (log2) (Count)
system.mem_ctrl.writePktSize::6                     0                       # Write request sizes (log2) (Count)
system.mem_ctrl.rdQLenPdf::0                      221                       # What read queue length does an incoming req see (Count)
system.mem_ctrl.rdQLenPdf::1                        0                       # What read queue length does an incoming req see (Count)
system.mem_ctrl.rdQLenPdf::2                        0                       # What read queue length does an incoming req see (Count)
system.mem_ctrl.rdQLenPdf::3                        0                       # What read queue length does an incoming req see (Count)
system.mem_ctrl.rdQLenPdf::4                        0                       # What read queue length does an incoming req see (Count)
system.mem_ctrl.rdQLenPdf::5                        0                       # What read queue length does an incoming req see (Count)
system.mem_ctrl.rdQLenPdf::6                        0                       # What read queue length does an incoming req see (Count)
system.mem_ctrl.rdQLenPdf::7                        0                       # What read queue length does an incoming req see (Count)
system.mem_ctrl.rdQLenPdf::8                        0                       # What read queue length does an incoming req see (Count)
system.mem_ctrl.rdQLenPdf::9                        0                       # What read queue length does an incoming req see (Count)
system.mem_ctrl.rdQLenPdf::10                       0                       # What read queue length does an incoming req see (Count)
system.mem_ctrl.rdQLenPdf::11                       0                       # What read queue length does an incoming req see (Count)
system.mem_ctrl.rdQLenPdf::12                       0                       # What read queue length does an incoming req see (Count)
system.mem_ctrl.rdQLenPdf::13                       0                       # What read queue length does an incoming req see (Count)
system.mem_ctrl.rdQLenPdf::14                       0                       # What read queue length does an incoming req see (Count)
system.mem_ctrl.rdQLenPdf::15                       0                       # What read queue length does an incoming req see (Count)
system.mem_ctrl.rdQLenPdf::16                       0                       # What read queue length does an incoming req see (Count)
system.mem_ctrl.rdQLenPdf::17                       0                       # What read queue length does an incoming req see (Count)
system.mem_ctrl.rdQLenPdf::18                       0                       # What read queue length does an incoming req see (Count)
system.mem_ctrl.rdQLenPdf::19                       0                       # What read queue length does an incoming req see (Count)
system.mem_ctrl.rdQLenPdf::20                       0                       # What read queue length does an incoming req see (Count)
system.mem_ctrl.rdQLenPdf::21                       0                       # What read queue length does an incoming req see (Count)
system.mem_ctrl.rdQLenPdf::22                       0                       # What read queue length does an incoming req see (Count)
system.mem_ctrl.rdQLenPdf::23                       0                       # What read queue length does an incoming req see (Count)
system.mem_ctrl.rdQLenPdf::24                       0                       # What read queue length does an incoming req see (Count)
system.mem_ctrl.rdQLenPdf::25                       0                       # What read queue length does an incoming req see (Count)
system.mem_ctrl.rdQLenPdf::26                       0                       # What read queue length does an incoming req see (Count)
system.mem_ctrl.rdQLenPdf::27                       0                       # What read queue length does an incoming req see (Count)
system.mem_ctrl.rdQLenPdf::28                       0                       # What read queue length does an incoming req see (Count)
system.mem_ctrl.rdQLenPdf::29                       0                       # What read queue length does an incoming req see (Count)
system.mem_ctrl.rdQLenPdf::30                       0                       # What read queue length does an incoming req see (Count)
system.mem_ctrl.rdQLenPdf::31                       0                       # What read queue length does an incoming req see (Count)
system.mem_ctrl.wrQLenPdf::0                        0                       # What write queue length does an incoming req see (Count)
system.mem_ctrl.wrQLenPdf::1                        0                       # What write queue length does an incoming req see (Count)
system.mem_ctrl.wrQLenPdf::2                        0                       # What write queue length does an incoming req see (Count)
system.mem_ctrl.wrQLenPdf::3                        0                       # What write queue length does an incoming req see (Count)
system.mem_ctrl.wrQLenPdf::4                        0                       # What write queue length does an incoming req see (Count)
system.mem_ctrl.wrQLenPdf::5                        0                       # What write queue length does an incoming req see (Count)
system.mem_ctrl.wrQLenPdf::6                        0                       # What write queue length does an incoming req see (Count)
system.mem_ctrl.wrQLenPdf::7                        0                       # What write queue length does an incoming req see (Count)
system.mem_ctrl.wrQLenPdf::8                        0                       # What write queue length does an incoming req see (Count)
system.mem_ctrl.wrQLenPdf::9                        0                       # What write queue length does an incoming req see (Count)
system.mem_ctrl.wrQLenPdf::10                       0                       # What write queue length does an incoming req see (Count)
system.mem_ctrl.wrQLenPdf::11                       0                       # What write queue length does an incoming req see (Count)
system.mem_ctrl.wrQLenPdf::12                       0                       # What write queue length does an incoming req see (Count)
system.mem_ctrl.wrQLenPdf::13                       0                       # What write queue length does an incoming req see (Count)
system.mem_ctrl.wrQLenPdf::14                       0                       # What write queue length does an incoming req see (Count)
system.mem_ctrl.wrQLenPdf::15                       0                       # What write queue length does an incoming req see (Count)
system.mem_ctrl.wrQLenPdf::16                       0                       # What write queue length does an incoming req see (Count)
system.mem_ctrl.wrQLenPdf::17                       0                       # What write queue length does an incoming req see (Count)
system.mem_ctrl.wrQLenPdf::18                       0                       # What write queue length does an incoming req see (Count)
system.mem_ctrl.wrQLenPdf::19                       0                       # What write queue length does an incoming req see (Count)
system.mem_ctrl.wrQLenPdf::20                       0                       # What write queue length does an incoming req see (Count)
system.mem_ctrl.wrQLenPdf::21                       0                       # What write queue length does an incoming req see (Count)
system.mem_ctrl.wrQLenPdf::22                       0                       # What write queue length does an incoming req see (Count)
system.mem_ctrl.wrQLenPdf::23                       0                       # What write queue length does an incoming req see (Count)
system.mem_ctrl.wrQLenPdf::24                       0                       # What write queue length does an incoming req see (Count)
system.mem_ctrl.wrQLenPdf::25                       0                       # What write queue length does an incoming req see (Count)
system.mem_ctrl.wrQLenPdf::26                       0                       # What write queue length does an incoming req see (Count)
system.mem_ctrl.wrQLenPdf::27                       0                       # What write queue length does an incoming req see (Count)
system.mem_ctrl.wrQLenPdf::28                       0                       # What write queue length does an incoming req see (Count)
system.mem_ctrl.wrQLenPdf::29                       0                       # What write queue length does an incoming req see (Count)
system.mem_ctrl.wrQLenPdf::30                       0                       # What write queue length does an incoming req see (Count)
system.mem_ctrl.wrQLenPdf::31                       0                       # What write queue length does an incoming req see (Count)
system.mem_ctrl.wrQLenPdf::32                       0                       # What write queue length does an incoming req see (Count)
system.mem_ctrl.wrQLenPdf::33                       0                       # What write queue length does an incoming req see (Count)
system.mem_ctrl.wrQLenPdf::34                       0                       # What write queue length does an incoming req see (Count)
system.mem_ctrl.wrQLenPdf::35                       0                       # What write queue length does an incoming req see (Count)
system.mem_ctrl.wrQLenPdf::36                       0                       # What write queue length does an incoming req see (Count)
system.mem_ctrl.wrQLenPdf::37                       0                       # What write queue length does an incoming req see (Count)
system.mem_ctrl.wrQLenPdf::38                       0                       # What write queue length does an incoming req see (Count)
system.mem_ctrl.wrQLenPdf::39                       0                       # What write queue length does an incoming req see (Count)
system.mem_ctrl.wrQLenPdf::40                       0                       # What write queue length does an incoming req see (Count)
system.mem_ctrl.wrQLenPdf::41                       0                       # What write queue length does an incoming req see (Count)
system.mem_ctrl.wrQLenPdf::42                       0                       # What write queue length does an incoming req see (Count)
system.mem_ctrl.wrQLenPdf::43                       0                       # What write queue length does an incoming req see (Count)
system.mem_ctrl.wrQLenPdf::44                       0                       # What write queue length does an incoming req see (Count)
system.mem_ctrl.wrQLenPdf::45                       0                       # What write queue length does an incoming req see (Count)
system.mem_ctrl.wrQLenPdf::46                       0                       # What write queue length does an incoming req see (Count)
system.mem_ctrl.wrQLenPdf::47                       0                       # What write queue length does an incoming req see (Count)
system.mem_ctrl.wrQLenPdf::48                       0                       # What write queue length does an incoming req see (Count)
system.mem_ctrl.wrQLenPdf::49                       0                       # What write queue length does an incoming req see (Count)
system.mem_ctrl.wrQLenPdf::50                       0                       # What write queue length does an incoming req see (Count)
system.mem_ctrl.wrQLenPdf::51                       0                       # What write queue length does an incoming req see (Count)
system.mem_ctrl.wrQLenPdf::52                       0                       # What write queue length does an incoming req see (Count)
system.mem_ctrl.wrQLenPdf::53                       0                       # What write queue length does an incoming req see (Count)
system.mem_ctrl.wrQLenPdf::54                       0                       # What write queue length does an incoming req see (Count)
system.mem_ctrl.wrQLenPdf::55                       0                       # What write queue length does an incoming req see (Count)
system.mem_ctrl.wrQLenPdf::56                       0                       # What write queue length does an incoming req see (Count)
system.mem_ctrl.wrQLenPdf::57                       0                       # What write queue length does an incoming req see (Count)
system.mem_ctrl.wrQLenPdf::58                       0                       # What write queue length does an incoming req see (Count)
system.mem_ctrl.wrQLenPdf::59                       0                       # What write queue length does an incoming req see (Count)
system.mem_ctrl.wrQLenPdf::60                       0                       # What write queue length does an incoming req see (Count)
system.mem_ctrl.wrQLenPdf::61                       0                       # What write queue length does an incoming req see (Count)
system.mem_ctrl.wrQLenPdf::62                       0                       # What write queue length does an incoming req see (Count)
system.mem_ctrl.wrQLenPdf::63                       0                       # What write queue length does an incoming req see (Count)
system.mem_ctrl.bytesReadWrQ                        0                       # Total number of bytes read from write queue (Byte)
system.mem_ctrl.bytesReadSys                    14144                       # Total read bytes from the system interface side (Byte)
system.mem_ctrl.bytesWrittenSys                     0                       # Total written bytes from the system interface side (Byte)
system.mem_ctrl.avgRdBWSys               266943474.56827402                       # Average system read bandwidth in Byte/s ((Byte/Second))
system.mem_ctrl.avgWrBWSys                 0.00000000                       # Average system write bandwidth in Byte/s ((Byte/Second))
system.mem_ctrl.totGap                       52922000                       # Total gap between requests (Tick)
system.mem_ctrl.avgGap                      239466.06                       # Average gap between requests ((Tick/Count))
system.mem_ctrl.requestorReadBytes::cpu.inst         7744                       # Per-requestor bytes read from memory (Byte)
system.mem_ctrl.requestorReadBytes::cpu.data         6400                       # Per-requestor bytes read from memory (Byte)
system.mem_ctrl.requestorReadRate::cpu.inst 146154572.048693031073                       # Per-requestor bytes read from memory rate ((Byte/Second))
system.mem_ctrl.requestorReadRate::cpu.data 120788902.519581004977                       # Per-requestor bytes read from memory rate ((Byte/Second))
system.mem_ctrl.requestorReadAccesses::cpu.inst          121                       # Per-requestor read serviced memory accesses (Count)
[...]
system.mem_ctrl.dram.bytesRead::cpu.inst         7744                       # Number of bytes read from this memory (Byte)
system.mem_ctrl.dram.bytesRead::cpu.data         6400                       # Number of bytes read from this memory (Byte)
system.mem_ctrl.dram.bytesRead::total           14144                       # Number of bytes read from this memory (Byte)
system.mem_ctrl.dram.bytesInstRead::cpu.inst         7744                       # Number of instructions bytes read from this memory (Byte)
system.mem_ctrl.dram.bytesInstRead::total         7744                       # Number of instructions bytes read from this memory (Byte)
system.mem_ctrl.dram.numReads::cpu.inst           121                       # Number of read requests responded to by this memory (Count)
system.mem_ctrl.dram.numReads::cpu.data           100                       # Number of read requests responded to by this memory (Count)
system.mem_ctrl.dram.numReads::total              221                       # Number of read requests responded to by this memory (Count)
system.mem_ctrl.dram.bwRead::cpu.inst       146154572                       # Total read bandwidth from this memory ((Byte/Second))
system.mem_ctrl.dram.bwRead::cpu.data       120788903                       # Total read bandwidth from this memory ((Byte/Second))
system.mem_ctrl.dram.bwRead::total          266943475                       # Total read bandwidth from this memory ((Byte/Second))
system.mem_ctrl.dram.bwInstRead::cpu.inst    146154572                       # Instruction read bandwidth from this memory ((Byte/Second))
system.mem_ctrl.dram.bwInstRead::total      146154572                       # Instruction read bandwidth from this memory ((Byte/Second))
system.mem_ctrl.dram.bwTotal::cpu.inst      146154572                       # Total bandwidth to/from this memory ((Byte/Second))
system.mem_ctrl.dram.bwTotal::cpu.data      120788903                       # Total bandwidth to/from this memory ((Byte/Second))
system.mem_ctrl.dram.bwTotal::total         266943475                       # Total bandwidth to/from this memory ((Byte/Second))
system.mem_ctrl.dram.readBursts                   221                       # Number of DRAM read bursts (Count)
system.mem_ctrl.dram.writeBursts                    0                       # Number of DRAM write bursts (Count)
system.mem_ctrl.dram.perBankRdBursts::0            74                       # Per bank write bursts (Count)
system.mem_ctrl.dram.perBankRdBursts::1            19                       # Per bank write bursts (Count)
system.mem_ctrl.dram.perBankRdBursts::2            12                       # Per bank write bursts (Count)
system.mem_ctrl.dram.perBankRdBursts::3             7                       # Per bank write bursts (Count)
system.mem_ctrl.dram.perBankRdBursts::4            11                       # Per bank write bursts (Count)
system.mem_ctrl.dram.perBankRdBursts::5            33                       # Per bank write bursts (Count)
system.mem_ctrl.dram.perBankRdBursts::6            64                       # Per bank write bursts (Count)
system.mem_ctrl.dram.perBankRdBursts::7             1                       # Per bank write bursts (Count)
system.mem_ctrl.dram.perBankRdBursts::8             0                       # Per bank write bursts (Count)
system.mem_ctrl.dram.perBankRdBursts::9             0                       # Per bank write bursts (Count)
system.mem_ctrl.dram.perBankRdBursts::10            0                       # Per bank write bursts (Count)
system.mem_ctrl.dram.perBankRdBursts::11            0                       # Per bank write bursts (Count)
system.mem_ctrl.dram.perBankRdBursts::12            0                       # Per bank write bursts (Count)
system.mem_ctrl.dram.perBankRdBursts::13            0                       # Per bank write bursts (Count)
system.mem_ctrl.dram.perBankRdBursts::14            0                       # Per bank write bursts (Count)
system.mem_ctrl.dram.perBankRdBursts::15            0                       # Per bank write bursts (Count)
system.mem_ctrl.dram.perBankWrBursts::0             0                       # Per bank write bursts (Count)
system.mem_ctrl.dram.perBankWrBursts::1             0                       # Per bank write bursts (Count)
system.mem_ctrl.dram.perBankWrBursts::2             0                       # Per bank write bursts (Count)
system.mem_ctrl.dram.perBankWrBursts::3             0                       # Per bank write bursts (Count)
system.mem_ctrl.dram.perBankWrBursts::4             0                       # Per bank write bursts (Count)
system.mem_ctrl.dram.perBankWrBursts::5             0                       # Per bank write bursts (Count)
system.mem_ctrl.dram.perBankWrBursts::6             0                       # Per bank write bursts (Count)
system.mem_ctrl.dram.perBankWrBursts::7             0                       # Per bank write bursts (Count)
system.mem_ctrl.dram.perBankWrBursts::8             0                       # Per bank write bursts (Count)
system.mem_ctrl.dram.perBankWrBursts::9             0                       # Per bank write bursts (Count)
system.mem_ctrl.dram.perBankWrBursts::10            0                       # Per bank write bursts (Count)
system.mem_ctrl.dram.perBankWrBursts::11            0                       # Per bank write bursts (Count)
system.mem_ctrl.dram.perBankWrBursts::12            0                       # Per bank write bursts (Count)
system.mem_ctrl.dram.perBankWrBursts::13            0                       # Per bank write bursts (Count)
system.mem_ctrl.dram.perBankWrBursts::14            0                       # Per bank write bursts (Count)
system.mem_ctrl.dram.perBankWrBursts::15            0                       # Per bank write bursts (Count)
system.mem_ctrl.dram.totQLat                   844250                       # Total ticks spent queuing (Tick)
system.mem_ctrl.dram.totBusLat                1105000                       # Total ticks spent in databus transfers (Tick)
system.mem_ctrl.dram.totMemAccLat             4988000                       # Total ticks spent from burst creation until serviced by the DRAM (Tick)
system.mem_ctrl.dram.avgQLat                  3820.14                       # Average queueing delay per DRAM burst ((Tick/Count))
system.mem_ctrl.dram.avgBusLat                5000.00                       # Average bus latency per DRAM burst ((Tick/Count))
system.mem_ctrl.dram.avgMemAccLat            22570.14                       # Average memory access latency per DRAM burst ((Tick/Count))
system.mem_ctrl.dram.readRowHits                  194                       # Number of row buffer hits during reads (Count)
system.mem_ctrl.dram.writeRowHits                   0                       # Number of row buffer hits during writes (Count)
system.mem_ctrl.dram.readRowHitRate             87.78                       # Row buffer hit rate for reads (Ratio)
system.mem_ctrl.dram.writeRowHitRate              nan                       # Row buffer hit rate for writes (Ratio)
system.mem_ctrl.dram.bytesPerActivate::samples           21                       # Bytes accessed per row activation (Byte)
system.mem_ctrl.dram.bytesPerActivate::mean   582.095238                       # Bytes accessed per row activation (Byte)
system.mem_ctrl.dram.bytesPerActivate::gmean   444.601394                       # Bytes accessed per row activation (Byte)
system.mem_ctrl.dram.bytesPerActivate::stdev   356.856540                       # Bytes accessed per row activation (Byte)
system.mem_ctrl.dram.bytesPerActivate::0-127            1      4.76%      4.76% # Bytes accessed per row activation (Byte)
system.mem_ctrl.dram.bytesPerActivate::128-255            5     23.81%     28.57% # Bytes accessed per row activation (Byte)
system.mem_ctrl.dram.bytesPerActivate::256-383            1      4.76%     33.33% # Bytes accessed per row activation (Byte)
system.mem_ctrl.dram.bytesPerActivate::384-511            2      9.52%     42.86% # Bytes accessed per row activation (Byte)
system.mem_ctrl.dram.bytesPerActivate::512-639            3     14.29%     57.14% # Bytes accessed per row activation (Byte)
system.mem_ctrl.dram.bytesPerActivate::640-767            1      4.76%     61.90% # Bytes accessed per row activation (Byte)
system.mem_ctrl.dram.bytesPerActivate::768-895            2      9.52%     71.43% # Bytes accessed per row activation (Byte)
system.mem_ctrl.dram.bytesPerActivate::1024-1151            6     28.57%    100.00% # Bytes accessed per row activation (Byte)
system.mem_ctrl.dram.bytesPerActivate::total           21                       # Bytes accessed per row activation (Byte)
system.mem_ctrl.dram.dramBytesRead              14144                       # Total bytes read (Byte)
system.mem_ctrl.dram.dramBytesWritten               0                       # Total bytes written (Byte)
system.mem_ctrl.dram.avgRdBW               266.943475                       # Average DRAM read bandwidth in MiBytes/s ((Byte/Second))
system.mem_ctrl.dram.avgWrBW                        0                       # Average DRAM write bandwidth in MiBytes/s ((Byte/Second))
system.mem_ctrl.dram.peakBW                  12800.00                       # Theoretical peak bandwidth in MiByte/s ((Byte/Second))
system.mem_ctrl.dram.busUtil                     2.09                       # Data bus utilization in percentage (Ratio)
system.mem_ctrl.dram.busUtilRead                 2.09                       # Data bus utilization in percentage for reads (Ratio)
system.mem_ctrl.dram.busUtilWrite                0.00                       # Data bus utilization in percentage for writes (Ratio)
system.mem_ctrl.dram.pageHitRate                87.78                       # Row buffer hit rate, read and write combined (Ratio)
system.mem_ctrl.dram.power_state.pwrStateResidencyTicks::UNDEFINED     52985000                       # Cumulative time (in ticks) in various power states (Tick)
system.mem_ctrl.dram.rank0.actEnergy           192780                       # Energy for activate commands per rank (pJ) (Joule)
system.mem_ctrl.dram.rank0.preEnergy            79695                       # Energy for precharge commands per rank (pJ) (Joule)
system.mem_ctrl.dram.rank0.readEnergy         1577940                       # Energy for read commands per rank (pJ) (Joule)
system.mem_ctrl.dram.rank0.writeEnergy              0                       # Energy for write commands per rank (pJ) (Joule)
system.mem_ctrl.dram.rank0.refreshEnergy 3687840.000000                       # Energy for refresh commands per rank (pJ) (Joule)
system.mem_ctrl.dram.rank0.actBackEnergy     12477870                       # Energy for active background per rank (pJ) (Joule)
system.mem_ctrl.dram.rank0.preBackEnergy      9838560                       # Energy for precharge background per rank (pJ) (Joule)
system.mem_ctrl.dram.rank0.actPowerDownEnergy            0                       # Energy for active power-down per rank (pJ) (Joule)
system.mem_ctrl.dram.rank0.prePowerDownEnergy            0                       # Energy for precharge power-down per rank (pJ) (Joule)
system.mem_ctrl.dram.rank0.selfRefreshEnergy            0                       # Energy for self refresh per rank (pJ) (Joule)
system.mem_ctrl.dram.rank0.totalEnergy       27854685                       # Total energy per rank (pJ) (Joule)
system.mem_ctrl.dram.rank0.averagePower    525.708880                       # Core power per rank (mW) (Watt)
system.mem_ctrl.dram.rank0.totalIdleTime            0                       # Total Idle time Per DRAM Rank (Tick)
system.mem_ctrl.dram.rank0.pwrStateTime::IDLE     25496750                       # Time in different power states (Tick)
system.mem_ctrl.dram.rank0.pwrStateTime::REF      1560000                       # Time in different power states (Tick)
system.mem_ctrl.dram.rank0.pwrStateTime::SREF            0                       # Time in different power states (Tick)
system.mem_ctrl.dram.rank0.pwrStateTime::PRE_PDN            0                       # Time in different power states (Tick)
system.mem_ctrl.dram.rank0.pwrStateTime::ACT     25928250                       # Time in different power states (Tick)
system.mem_ctrl.dram.rank0.pwrStateTime::ACT_PDN            0                       # Time in different power states (Tick)
system.mem_ctrl.dram.rank1.actEnergy                0                       # Energy for activate commands per rank (pJ) (Joule)
system.mem_ctrl.dram.rank1.preEnergy                0                       # Energy for precharge commands per rank (pJ) (Joule)
system.mem_ctrl.dram.rank1.readEnergy               0                       # Energy for read commands per rank (pJ) (Joule)
system.mem_ctrl.dram.rank1.writeEnergy              0                       # Energy for write commands per rank (pJ) (Joule)
system.mem_ctrl.dram.rank1.refreshEnergy 3687840.000000                       # Energy for refresh commands per rank (pJ) (Joule)
system.mem_ctrl.dram.rank1.actBackEnergy       673740                       # Energy for active background per rank (pJ) (Joule)
system.mem_ctrl.dram.rank1.preBackEnergy     19778880                       # Energy for precharge background per rank (pJ) (Joule)
system.mem_ctrl.dram.rank1.actPowerDownEnergy            0                       # Energy for active power-down per rank (pJ) (Joule)
system.mem_ctrl.dram.rank1.prePowerDownEnergy            0                       # Energy for precharge power-down per rank (pJ) (Joule)
system.mem_ctrl.dram.rank1.selfRefreshEnergy            0                       # Energy for self refresh per rank (pJ) (Joule)
system.mem_ctrl.dram.rank1.totalEnergy       24140460                       # Total energy per rank (pJ) (Joule)
system.mem_ctrl.dram.rank1.averagePower    455.609323                       # Core power per rank (mW) (Watt)
system.mem_ctrl.dram.rank1.totalIdleTime            0                       # Total Idle time Per DRAM Rank (Tick)
system.mem_ctrl.dram.rank1.pwrStateTime::IDLE     51425000                       # Time in different power states (Tick)
system.mem_ctrl.dram.rank1.pwrStateTime::REF      1560000                       # Time in different power states (Tick)
system.mem_ctrl.dram.rank1.pwrStateTime::SREF            0                       # Time in different power states (Tick)
system.mem_ctrl.dram.rank1.pwrStateTime::PRE_PDN            0                       # Time in different power states (Tick)
system.mem_ctrl.dram.rank1.pwrStateTime::ACT            0                       # Time in different power states (Tick)
system.mem_ctrl.dram.rank1.pwrStateTime::ACT_PDN            0                       # Time in different power states (Tick)
system.mem_ctrl.power_state.pwrStateResidencyTicks::UNDEFINED     52985000                       # Cumulative time (in ticks) in various power states (Tick)
system.membus.transDist::ReadResp                 135                       # Transaction distribution (Count)
system.membus.transDist::CleanEvict                 5                       # Transaction distribution (Count)
system.membus.transDist::ReadExReq                 86                       # Transaction distribution (Count)
system.membus.transDist::ReadExResp                86                       # Transaction distribution (Count)
system.membus.transDist::ReadSharedReq            135                       # Transaction distribution (Count)
system.membus.pktCount_system.cpu.icache.mem_side_port::system.mem_ctrl.port          247                       # Packet count per connected requestor and responder (Count)
system.membus.pktCount_system.cpu.dcache.mem_side_port::system.mem_ctrl.port          200                       # Packet count per connected requestor and responder (Count)
system.membus.pktCount::total                     447                       # Packet count per connected requestor and responder (Count)
system.membus.pktSize_system.cpu.icache.mem_side_port::system.mem_ctrl.port         7744                       # Cumulative packet size per connected requestor and responder (Byte)
system.membus.pktSize_system.cpu.dcache.mem_side_port::system.mem_ctrl.port         6400                       # Cumulative packet size per connected requestor and responder (Byte)
system.membus.pktSize::total                    14144                       # Cumulative packet size per connected requestor and responder (Byte)
system.membus.snoops                                0                       # Total snoops (Count)
system.membus.snoopTraffic                          0                       # Total snoop traffic (Byte)
system.membus.snoopFanout::samples                221                       # Request fanout histogram (Count)
system.membus.snoopFanout::mean                     0                       # Request fanout histogram (Count)
system.membus.snoopFanout::stdev                    0                       # Request fanout histogram (Count)
system.membus.snoopFanout::underflows               0      0.00%      0.00% # Request fanout histogram (Count)
system.membus.snoopFanout::0                      221    100.00%    100.00% # Request fanout histogram (Count)
system.membus.snoopFanout::1                        0      0.00%    100.00% # Request fanout histogram (Count)
system.membus.snoopFanout::2                        0      0.00%    100.00% # Request fanout histogram (Count)
system.membus.snoopFanout::overflows                0      0.00%    100.00% # Request fanout histogram (Count)
system.membus.snoopFanout::min_value                0                       # Request fanout histogram (Count)
system.membus.snoopFanout::max_value                0                       # Request fanout histogram (Count)
system.membus.snoopFanout::total                  221                       # Request fanout histogram (Count)
system.membus.power_state.pwrStateResidencyTicks::UNDEFINED     52985000                       # Cumulative time (in ticks) in various power states (Tick)
system.membus.reqLayer0.occupancy              226000                       # Layer occupancy (ticks) (Tick)
system.membus.reqLayer0.utilization               0.0                       # Layer utilization (Ratio)
system.membus.respLayer0.occupancy             638750                       # Layer occupancy (ticks) (Tick)
system.membus.respLayer0.utilization              0.0                       # Layer utilization (Ratio)
system.membus.respLayer1.occupancy             528250                       # Layer occupancy (ticks) (Tick)
system.membus.respLayer1.utilization              0.0                       # Layer utilization (Ratio)
system.membus.snoop_filter.totRequests            226                       # Total number of requests made to the snoop filter. (Count)
system.membus.snoop_filter.hitSingleRequests            5                       # Number of requests hitting in the snoop filter with a single holder of the requested data. (Count)
system.membus.snoop_filter.hitMultiRequests            0                       # Number of requests hitting in the snoop filter with multiple (>1) holders of the requested data. (Count)
system.membus.snoop_filter.totSnoops                0                       # Total number of snoops made to the snoop filter. (Count)
system.membus.snoop_filter.hitSingleSnoops            0                       # Number of snoops hitting in the snoop filter with a single holder of the requested data. (Count)
system.membus.snoop_filter.hitMultiSnoops            0                       # Number of snoops hitting in the snoop filter with multiple (>1) holders of the requested data. (Count)
system.workload.inst.arm                            0                       # number of arm instructions executed (Count)
system.workload.inst.quiesce                        0                       # number of quiesce instructions executed (Count)

---------- End Simulation Statistics   ----------
