
---------- Begin Simulation Statistics ----------
simSeconds                                   0.016557                       # Number of seconds simulated (Second)
simTicks                                  16557305000                       # Number of ticks simulated (Tick)
finalTick                                 16557305000                       # Number of ticks from beginning of simulation (restored from checkpoints and never reset) (Tick)
simFreq                                  1000000000000                       # The number of ticks per simulated second ((Tick/Second))
hostSeconds                                     37.58                       # Real time elapsed on the host (Second)
hostTickRate                                440577836                       # The number of ticks simulated per host second (ticks/s) ((Tick/Second))
hostMemory                                     675752                       # Number of bytes of host memory used (Byte)
simInsts                                      8726509                       # Number of instructions simulated (Count)
simOps                                        8726509                       # Number of ops (including micro ops) simulated (Count)
hostInstRate                                   232205                       # Simulator instruction rate (inst/s) ((Count/Second))
hostOpRate                                     232205                       # Simulator op (including micro ops) rate (op/s) ((Count/Second))
system.clk_domain.clock                          1000                       # Clock period in ticks (Tick)
system.clk_domain.voltage_domain.voltage            1                       # Voltage in Volts (Volt)
system.cpu.numCycles                         16557306                       # Number of cpu cycles simulated (Cycle)
system.cpu.cpi                               1.897357                       # CPI: cycles per instruction (core level) ((Cycle/Count))
system.cpu.ipc                               0.527049                       # IPC: instructions per cycle (core level) ((Count/Cycle))
system.cpu.numWorkItemsStarted                      0                       # Number of work items this cpu started (Count)
system.cpu.numWorkItemsCompleted                    0                       # Number of work items this cpu completed (Count)
system.cpu.instsAdded                         8774846                       # Number of instructions added to the IQ (excludes non-spec) (Count)
system.cpu.nonSpecInstsAdded                       18                       # Number of non-speculative instructions added to the IQ (Count)
system.cpu.instsIssued                       14137346                       # Number of instructions issued (Count)
system.cpu.squashedInstsIssued                   2215                       # Number of squashed instructions issued (Count)
system.cpu.squashedInstsExamined                48354                       # Number of squashed instructions iterated over during squash; mainly for profiling (Count)
system.cpu.squashedOperandsExamined             16534                       # Number of squashed operands that are examined and possibly removed from graph (Count)
system.cpu.squashedNonSpecRemoved                   4                       # Number of squashed non-spec instructions that were removed (Count)
system.cpu.numIssuedDist::samples            16548937                       # Number of insts issued each cycle (Count)
system.cpu.numIssuedDist::mean               0.854275                       # Number of insts issued each cycle (Count)
system.cpu.numIssuedDist::stdev              1.923776                       # Number of insts issued each cycle (Count)
system.cpu.numIssuedDist::underflows                0      0.00%      0.00% # Number of insts issued each cycle (Count)
system.cpu.numIssuedDist::0                  13180372     79.64%     79.64% # Number of insts issued each cycle (Count)
system.cpu.numIssuedDist::1                    276009      1.67%     81.31% # Number of insts issued each cycle (Count)
system.cpu.numIssuedDist::2                    393663      2.38%     83.69% # Number of insts issued each cycle (Count)
system.cpu.numIssuedDist::3                    586329      3.54%     87.23% # Number of insts issued each cycle (Count)
system.cpu.numIssuedDist::4                   1044337      6.31%     93.55% # Number of insts issued each cycle (Count)
system.cpu.numIssuedDist::5                    284084      1.72%     95.26% # Number of insts issued each cycle (Count)
system.cpu.numIssuedDist::6                    268711      1.62%     96.89% # Number of insts issued each cycle (Count)
system.cpu.numIssuedDist::7                     18466      0.11%     97.00% # Number of insts issued each cycle (Count)
system.cpu.numIssuedDist::8                    496966      3.00%    100.00% # Number of insts issued each cycle (Count)
system.cpu.numIssuedDist::overflows                 0      0.00%    100.00% # Number of insts issued each cycle (Count)
system.cpu.numIssuedDist::min_value                 0                       # Number of insts issued each cycle (Count)
system.cpu.numIssuedDist::max_value                 8                       # Number of insts issued each cycle (Count)
system.cpu.numIssuedDist::total              16548937                       # Number of insts issued each cycle (Count)
system.cpu.statFuBusy::No_OpClass                   0      0.00%      0.00% # attempts to use FU when none available (Count)
system.cpu.statFuBusy::IntAlu                       9      0.00%      0.00% # attempts to use FU when none available (Count)
system.cpu.statFuBusy::IntMult                      0      0.00%      0.00% # attempts to use FU when none available (Count)
system.cpu.statFuBusy::IntDiv                       0      0.00%      0.00% # attempts to use FU when none available (Count)
system.cpu.statFuBusy::FloatAdd                     0      0.00%      0.00% # attempts to use FU when none available (Count)
system.cpu.statFuBusy::FloatCmp                     0      0.00%      0.00% # attempts to use FU when none available (Count)
system.cpu.statFuBusy::FloatCvt                     0      0.00%      0.00% # attempts to use FU when none available (Count)
system.cpu.statFuBusy::FloatMult                    0      0.00%      0.00% # attempts to use FU when none available (Count)
system.cpu.statFuBusy::FloatMultAcc                 0      0.00%      0.00% # attempts to use FU when none available (Count)
system.cpu.statFuBusy::FloatDiv                     0      0.00%      0.00% # attempts to use FU when none available (Count)
system.cpu.statFuBusy::FloatMisc                    0      0.00%      0.00% # attempts to use FU when none available (Count)
system.cpu.statFuBusy::FloatSqrt                    0      0.00%      0.00% # attempts to use FU when none available (Count)
system.cpu.statFuBusy::SimdAdd                   5180      0.37%      0.37% # attempts to use FU when none available (Count)
system.cpu.statFuBusy::SimdAddAcc                   0      0.00%      0.37% # attempts to use FU when none available (Count)
system.cpu.statFuBusy::SimdAlu                      0      0.00%      0.37% # attempts to use FU when none available (Count)
system.cpu.statFuBusy::SimdCmp                      0      0.00%      0.37% # attempts to use FU when none available (Count)
system.cpu.statFuBusy::SimdCvt                      0      0.00%      0.37% # attempts to use FU when none available (Count)
system.cpu.statFuBusy::SimdMisc                  2243      0.16%      0.53% # attempts to use FU when none available (Count)
system.cpu.statFuBusy::SimdMult                  1640      0.12%      0.65% # attempts to use FU when none available (Count)
system.cpu.statFuBusy::SimdMultAcc                  7      0.00%      0.65% # attempts to use FU when none available (Count)
system.cpu.statFuBusy::SimdMatMultAcc               0      0.00%      0.65% # attempts to use FU when none available (Count)
system.cpu.statFuBusy::SimdShift                    0      0.00%      0.65% # attempts to use FU when none available (Count)
system.cpu.statFuBusy::SimdShiftAcc                 0      0.00%      0.65% # attempts to use FU when none available (Count)
system.cpu.statFuBusy::SimdDiv                      0      0.00%      0.65% # attempts to use FU when none available (Count)
system.cpu.statFuBusy::SimdSqrt                     0      0.00%      0.65% # attempts to use FU when none available (Count)
system.cpu.statFuBusy::SimdFloatAdd                 0      0.00%      0.65% # attempts to use FU when none available (Count)
system.cpu.statFuBusy::SimdFloatAlu                 0      0.00%      0.65% # attempts to use FU when none available (Count)
system.cpu.statFuBusy::SimdFloatCmp                 0      0.00%      0.65% # attempts to use FU when none available (Count)
system.cpu.statFuBusy::SimdFloatCvt                 0      0.00%      0.65% # attempts to use FU when none available (Count)
system.cpu.statFuBusy::SimdFloatDiv                 0      0.00%      0.65% # attempts to use FU when none available (Count)
system.cpu.statFuBusy::SimdFloatMisc                0      0.00%      0.65% # attempts to use FU when none available (Count)
system.cpu.statFuBusy::SimdFloatMult                0      0.00%      0.65% # attempts to use FU when none available (Count)
system.cpu.statFuBusy::SimdFloatMultAcc          1940      0.14%      0.79% # attempts to use FU when none available (Count)
system.cpu.statFuBusy::SimdFloatMatMultAcc            0      0.00%      0.79% # attempts to use FU when none available (Count)
system.cpu.statFuBusy::SimdFloatSqrt                0      0.00%      0.79% # attempts to use FU when none available (Count)
system.cpu.statFuBusy::SimdReduceAdd                0      0.00%      0.79% # attempts to use FU when none available (Count)
system.cpu.statFuBusy::SimdReduceAlu                0      0.00%      0.79% # attempts to use FU when none available (Count)
system.cpu.statFuBusy::SimdReduceCmp                0      0.00%      0.79% # attempts to use FU when none available (Count)
system.cpu.statFuBusy::SimdFloatReduceAdd            0      0.00%      0.79% # attempts to use FU when none available (Count)
system.cpu.statFuBusy::SimdFloatReduceCmp            0      0.00%      0.79% # attempts to use FU when none available (Count)
system.cpu.statFuBusy::SimdAes                      0      0.00%      0.79% # attempts to use FU when none available (Count)
system.cpu.statFuBusy::SimdAesMix                   0      0.00%      0.79% # attempts to use FU when none available (Count)
system.cpu.statFuBusy::SimdSha1Hash                 0      0.00%      0.79% # attempts to use FU when none available (Count)
system.cpu.statFuBusy::SimdSha1Hash2                0      0.00%      0.79% # attempts to use FU when none available (Count)
system.cpu.statFuBusy::SimdSha256Hash               0      0.00%      0.79% # attempts to use FU when none available (Count)
system.cpu.statFuBusy::SimdSha256Hash2              0      0.00%      0.79% # attempts to use FU when none available (Count)
system.cpu.statFuBusy::SimdShaSigma2                0      0.00%      0.79% # attempts to use FU when none available (Count)
system.cpu.statFuBusy::SimdShaSigma3                0      0.00%      0.79% # attempts to use FU when none available (Count)
system.cpu.statFuBusy::SimdSha3                     0      0.00%      0.79% # attempts to use FU when none available (Count)
system.cpu.statFuBusy::SimdSm4e                     0      0.00%      0.79% # attempts to use FU when none available (Count)
system.cpu.statFuBusy::SimdCrc                      0      0.00%      0.79% # attempts to use FU when none available (Count)
system.cpu.statFuBusy::SimdPredAlu                  0      0.00%      0.79% # attempts to use FU when none available (Count)
system.cpu.statFuBusy::SimdDotProd                  0      0.00%      0.79% # attempts to use FU when none available (Count)
system.cpu.statFuBusy::Matrix                       0      0.00%      0.79% # attempts to use FU when none available (Count)
system.cpu.statFuBusy::MatrixMov                    0      0.00%      0.79% # attempts to use FU when none available (Count)
system.cpu.statFuBusy::MatrixOP                     0      0.00%      0.79% # attempts to use FU when none available (Count)
system.cpu.statFuBusy::MemRead                     37      0.00%      0.79% # attempts to use FU when none available (Count)
system.cpu.statFuBusy::MemWrite                    57      0.00%      0.79% # attempts to use FU when none available (Count)
system.cpu.statFuBusy::FloatMemRead            764440     54.53%     55.33% # attempts to use FU when none available (Count)
system.cpu.statFuBusy::FloatMemWrite                0      0.00%     55.33% # attempts to use FU when none available (Count)
system.cpu.statFuBusy::InstPrefetch                 0      0.00%     55.33% # attempts to use FU when none available (Count)
system.cpu.statFuBusy::SimdUnitStrideLoad       616486     43.98%     99.30% # attempts to use FU when none available (Count)
system.cpu.statFuBusy::SimdUnitStrideStore            0      0.00%     99.30% # attempts to use FU when none available (Count)
system.cpu.statFuBusy::SimdUnitStrideMaskLoad            0      0.00%     99.30% # attempts to use FU when none available (Count)
system.cpu.statFuBusy::SimdUnitStrideMaskStore            0      0.00%     99.30% # attempts to use FU when none available (Count)
system.cpu.statFuBusy::SimdStridedLoad              0      0.00%     99.30% # attempts to use FU when none available (Count)
system.cpu.statFuBusy::SimdStridedStore             0      0.00%     99.30% # attempts to use FU when none available (Count)
system.cpu.statFuBusy::SimdIndexedLoad              0      0.00%     99.30% # attempts to use FU when none available (Count)
system.cpu.statFuBusy::SimdIndexedStore             0      0.00%     99.30% # attempts to use FU when none available (Count)
system.cpu.statFuBusy::SimdWholeRegisterLoad            0      0.00%     99.30% # attempts to use FU when none available (Count)
system.cpu.statFuBusy::SimdWholeRegisterStore            0      0.00%     99.30% # attempts to use FU when none available (Count)
system.cpu.statFuBusy::SimdUnitStrideFaultOnlyFirstLoad            0      0.00%     99.30% # attempts to use FU when none available (Count)
system.cpu.statFuBusy::SimdUnitStrideSegmentedLoad            0      0.00%     99.30% # attempts to use FU when none available (Count)
system.cpu.statFuBusy::SimdUnitStrideSegmentedStore            0      0.00%     99.30% # attempts to use FU when none available (Count)
system.cpu.statFuBusy::SimdUnitStrideSegmentedFaultOnlyFirstLoad            0      0.00%     99.30% # attempts to use FU when none available (Count)
system.cpu.statFuBusy::SimdStrideSegmentedLoad            0      0.00%     99.30% # attempts to use FU when none available (Count)
system.cpu.statFuBusy::SimdStrideSegmentedStore            0      0.00%     99.30% # attempts to use FU when none available (Count)
system.cpu.statFuBusy::SimdExt                      0      0.00%     99.30% # attempts to use FU when none available (Count)
system.cpu.statFuBusy::SimdFloatExt                 0      0.00%     99.30% # attempts to use FU when none available (Count)
system.cpu.statFuBusy::SimdConfig                9757      0.70%    100.00% # attempts to use FU when none available (Count)
system.cpu.statFuBusy::SimdBf16Add                  0      0.00%    100.00% # attempts to use FU when none available (Count)
system.cpu.statFuBusy::SimdBf16Cmp                  0      0.00%    100.00% # attempts to use FU when none available (Count)
system.cpu.statFuBusy::SimdBf16Cvt                  0      0.00%    100.00% # attempts to use FU when none available (Count)
system.cpu.statFuBusy::SimdBf16DotProd              0      0.00%    100.00% # attempts to use FU when none available (Count)
system.cpu.statFuBusy::SimdBf16MatMultAcc            0      0.00%    100.00% # attempts to use FU when none available (Count)
system.cpu.statFuBusy::SimdBf16Mult                 0      0.00%    100.00% # attempts to use FU when none available (Count)
system.cpu.statFuBusy::SimdBf16MultAcc              0      0.00%    100.00% # attempts to use FU when none available (Count)
system.cpu.statFuBusy::Bf16Cvt                      0      0.00%    100.00% # attempts to use FU when none available (Count)
system.cpu.statFuBusy::System                       0      0.00%    100.00% # attempts to use FU when none available (Count)
system.cpu.issuedInstType_0::No_OpClass            24      0.00%      0.00% # Number of instructions issued per FU type, per thread (Count)
system.cpu.issuedInstType_0::IntAlu           3799855     26.88%     26.88% # Number of instructions issued per FU type, per thread (Count)
system.cpu.issuedInstType_0::IntMult                7      0.00%     26.88% # Number of instructions issued per FU type, per thread (Count)
system.cpu.issuedInstType_0::IntDiv                 2      0.00%     26.88% # Number of instructions issued per FU type, per thread (Count)
system.cpu.issuedInstType_0::FloatAdd               0      0.00%     26.88% # Number of instructions issued per FU type, per thread (Count)
system.cpu.issuedInstType_0::FloatCmp               0      0.00%     26.88% # Number of instructions issued per FU type, per thread (Count)
system.cpu.issuedInstType_0::FloatCvt               0      0.00%     26.88% # Number of instructions issued per FU type, per thread (Count)
system.cpu.issuedInstType_0::FloatMult              0      0.00%     26.88% # Number of instructions issued per FU type, per thread (Count)
system.cpu.issuedInstType_0::FloatMultAcc            0      0.00%     26.88% # Number of instructions issued per FU type, per thread (Count)
system.cpu.issuedInstType_0::FloatDiv               0      0.00%     26.88% # Number of instructions issued per FU type, per thread (Count)
system.cpu.issuedInstType_0::FloatMisc              0      0.00%     26.88% # Number of instructions issued per FU type, per thread (Count)
system.cpu.issuedInstType_0::FloatSqrt              0      0.00%     26.88% # Number of instructions issued per FU type, per thread (Count)
system.cpu.issuedInstType_0::SimdAdd            18158      0.13%     27.01% # Number of instructions issued per FU type, per thread (Count)
system.cpu.issuedInstType_0::SimdAddAcc             0      0.00%     27.01% # Number of instructions issued per FU type, per thread (Count)
system.cpu.issuedInstType_0::SimdAlu                0      0.00%     27.01% # Number of instructions issued per FU type, per thread (Count)
system.cpu.issuedInstType_0::SimdCmp                0      0.00%     27.01% # Number of instructions issued per FU type, per thread (Count)
system.cpu.issuedInstType_0::SimdCvt                0      0.00%     27.01% # Number of instructions issued per FU type, per thread (Count)
system.cpu.issuedInstType_0::SimdMisc           17361      0.12%     27.13% # Number of instructions issued per FU type, per thread (Count)
system.cpu.issuedInstType_0::SimdMult           27546      0.19%     27.32% # Number of instructions issued per FU type, per thread (Count)
system.cpu.issuedInstType_0::SimdMultAcc        18159      0.13%     27.45% # Number of instructions issued per FU type, per thread (Count)
system.cpu.issuedInstType_0::SimdMatMultAcc            0      0.00%     27.45% # Number of instructions issued per FU type, per thread (Count)
system.cpu.issuedInstType_0::SimdShift          18217      0.13%     27.58% # Number of instructions issued per FU type, per thread (Count)
system.cpu.issuedInstType_0::SimdShiftAcc            0      0.00%     27.58% # Number of instructions issued per FU type, per thread (Count)
system.cpu.issuedInstType_0::SimdDiv                0      0.00%     27.58% # Number of instructions issued per FU type, per thread (Count)
system.cpu.issuedInstType_0::SimdSqrt               0      0.00%     27.58% # Number of instructions issued per FU type, per thread (Count)
system.cpu.issuedInstType_0::SimdFloatAdd        18216      0.13%     27.71% # Number of instructions issued per FU type, per thread (Count)
system.cpu.issuedInstType_0::SimdFloatAlu            0      0.00%     27.71% # Number of instructions issued per FU type, per thread (Count)
system.cpu.issuedInstType_0::SimdFloatCmp            0      0.00%     27.71% # Number of instructions issued per FU type, per thread (Count)
system.cpu.issuedInstType_0::SimdFloatCvt        18153      0.13%     27.84% # Number of instructions issued per FU type, per thread (Count)
system.cpu.issuedInstType_0::SimdFloatDiv            0      0.00%     27.84% # Number of instructions issued per FU type, per thread (Count)
system.cpu.issuedInstType_0::SimdFloatMisc            0      0.00%     27.84% # Number of instructions issued per FU type, per thread (Count)
system.cpu.issuedInstType_0::SimdFloatMult            0      0.00%     27.84% # Number of instructions issued per FU type, per thread (Count)
system.cpu.issuedInstType_0::SimdFloatMultAcc      2097152     14.83%     42.67% # Number of instructions issued per FU type, per thread (Count)
system.cpu.issuedInstType_0::SimdFloatMatMultAcc            0      0.00%     42.67% # Number of instructions issued per FU type, per thread (Count)
system.cpu.issuedInstType_0::SimdFloatSqrt            0      0.00%     42.67% # Number of instructions issued per FU type, per thread (Count)
system.cpu.issuedInstType_0::SimdReduceAdd            0      0.00%     42.67% # Number of instructions issued per FU type, per thread (Count)
system.cpu.issuedInstType_0::SimdReduceAlu            0      0.00%     42.67% # Number of instructions issued per FU type, per thread (Count)
system.cpu.issuedInstType_0::SimdReduceCmp            0      0.00%     42.67% # Number of instructions issued per FU type, per thread (Count)
system.cpu.issuedInstType_0::SimdFloatReduceAdd            0      0.00%     42.67% # Number of instructions issued per FU type, per thread (Count)
system.cpu.issuedInstType_0::SimdFloatReduceCmp            0      0.00%     42.67% # Number of instructions issued per FU type, per thread (Count)
system.cpu.issuedInstType_0::SimdAes                0      0.00%     42.67% # Number of instructions issued per FU type, per thread (Count)
system.cpu.issuedInstType_0::SimdAesMix             0      0.00%     42.67% # Number of instructions issued per FU type, per thread (Count)
system.cpu.issuedInstType_0::SimdSha1Hash            0      0.00%     42.67% # Number of instructions issued per FU type, per thread (Count)
system.cpu.issuedInstType_0::SimdSha1Hash2            0      0.00%     42.67% # Number of instructions issued per FU type, per thread (Count)
system.cpu.issuedInstType_0::SimdSha256Hash            0      0.00%     42.67% # Number of instructions issued per FU type, per thread (Count)
system.cpu.issuedInstType_0::SimdSha256Hash2            0      0.00%     42.67% # Number of instructions issued per FU type, per thread (Count)
system.cpu.issuedInstType_0::SimdShaSigma2            0      0.00%     42.67% # Number of instructions issued per FU type, per thread (Count)
system.cpu.issuedInstType_0::SimdShaSigma3            0      0.00%     42.67% # Number of instructions issued per FU type, per thread (Count)
system.cpu.issuedInstType_0::SimdSha3               0      0.00%     42.67% # Number of instructions issued per FU type, per thread (Count)
system.cpu.issuedInstType_0::SimdSm4e               0      0.00%     42.67% # Number of instructions issued per FU type, per thread (Count)
system.cpu.issuedInstType_0::SimdCrc                0      0.00%     42.67% # Number of instructions issued per FU type, per thread (Count)
system.cpu.issuedInstType_0::SimdPredAlu            0      0.00%     42.67% # Number of instructions issued per FU type, per thread (Count)
system.cpu.issuedInstType_0::SimdDotProd            0      0.00%     42.67% # Number of instructions issued per FU type, per thread (Count)
system.cpu.issuedInstType_0::Matrix                 0      0.00%     42.67% # Number of instructions issued per FU type, per thread (Count)
system.cpu.issuedInstType_0::MatrixMov              0      0.00%     42.67% # Number of instructions issued per FU type, per thread (Count)
system.cpu.issuedInstType_0::MatrixOP               0      0.00%     42.67% # Number of instructions issued per FU type, per thread (Count)
system.cpu.issuedInstType_0::MemRead              807      0.01%     42.68% # Number of instructions issued per FU type, per thread (Count)
system.cpu.issuedInstType_0::MemWrite           35710      0.25%     42.93% # Number of instructions issued per FU type, per thread (Count)
system.cpu.issuedInstType_0::FloatMemRead      6500804     45.98%     88.91% # Number of instructions issued per FU type, per thread (Count)
system.cpu.issuedInstType_0::FloatMemWrite            0      0.00%     88.91% # Number of instructions issued per FU type, per thread (Count)
system.cpu.issuedInstType_0::InstPrefetch            0      0.00%     88.91% # Number of instructions issued per FU type, per thread (Count)
system.cpu.issuedInstType_0::SimdUnitStrideLoad      1493019     10.56%     99.48% # Number of instructions issued per FU type, per thread (Count)
system.cpu.issuedInstType_0::SimdUnitStrideStore        26532      0.19%     99.66% # Number of instructions issued per FU type, per thread (Count)
system.cpu.issuedInstType_0::SimdUnitStrideMaskLoad            0      0.00%     99.66% # Number of instructions issued per FU type, per thread (Count)
system.cpu.issuedInstType_0::SimdUnitStrideMaskStore            0      0.00%     99.66% # Number of instructions issued per FU type, per thread (Count)
system.cpu.issuedInstType_0::SimdStridedLoad            0      0.00%     99.66% # Number of instructions issued per FU type, per thread (Count)
system.cpu.issuedInstType_0::SimdStridedStore            0      0.00%     99.66% # Number of instructions issued per FU type, per thread (Count)
system.cpu.issuedInstType_0::SimdIndexedLoad            0      0.00%     99.66% # Number of instructions issued per FU type, per thread (Count)
system.cpu.issuedInstType_0::SimdIndexedStore            0      0.00%     99.66% # Number of instructions issued per FU type, per thread (Count)
system.cpu.issuedInstType_0::SimdWholeRegisterLoad            0      0.00%     99.66% # Number of instructions issued per FU type, per thread (Count)
system.cpu.issuedInstType_0::SimdWholeRegisterStore            0      0.00%     99.66% # Number of instructions issued per FU type, per thread (Count)
system.cpu.issuedInstType_0::SimdUnitStrideFaultOnlyFirstLoad            0      0.00%     99.66% # Number of instructions issued per FU type, per thread (Count)
system.cpu.issuedInstType_0::SimdUnitStrideSegmentedLoad            0      0.00%     99.66% # Number of instructions issued per FU type, per thread (Count)
system.cpu.issuedInstType_0::SimdUnitStrideSegmentedStore            0      0.00%     99.66% # Number of instructions issued per FU type, per thread (Count)
system.cpu.issuedInstType_0::SimdUnitStrideSegmentedFaultOnlyFirstLoad            0      0.00%     99.66% # Number of instructions issued per FU type, per thread (Count)
system.cpu.issuedInstType_0::SimdStrideSegmentedLoad            0      0.00%     99.66% # Number of instructions issued per FU type, per thread (Count)
system.cpu.issuedInstType_0::SimdStrideSegmentedStore            0      0.00%     99.66% # Number of instructions issued per FU type, per thread (Count)
system.cpu.issuedInstType_0::SimdExt                0      0.00%     99.66% # Number of instructions issued per FU type, per thread (Count)
system.cpu.issuedInstType_0::SimdFloatExt            0      0.00%     99.66% # Number of instructions issued per FU type, per thread (Count)
system.cpu.issuedInstType_0::SimdConfig         47624      0.34%    100.00% # Number of instructions issued per FU type, per thread (Count)
system.cpu.issuedInstType_0::SimdBf16Add            0      0.00%    100.00% # Number of instructions issued per FU type, per thread (Count)
system.cpu.issuedInstType_0::SimdBf16Cmp            0      0.00%    100.00% # Number of instructions issued per FU type, per thread (Count)
system.cpu.issuedInstType_0::SimdBf16Cvt            0      0.00%    100.00% # Number of instructions issued per FU type, per thread (Count)
system.cpu.issuedInstType_0::SimdBf16DotProd            0      0.00%    100.00% # Number of instructions issued per FU type, per thread (Count)
system.cpu.issuedInstType_0::SimdBf16MatMultAcc            0      0.00%    100.00% # Number of instructions issued per FU type, per thread (Count)
system.cpu.issuedInstType_0::SimdBf16Mult            0      0.00%    100.00% # Number of instructions issued per FU type, per thread (Count)
system.cpu.issuedInstType_0::SimdBf16MultAcc            0      0.00%    100.00% # Number of instructions issued per FU type, per thread (Count)
system.cpu.issuedInstType_0::Bf16Cvt                0      0.00%    100.00% # Number of instructions issued per FU type, per thread (Count)
system.cpu.issuedInstType_0::System                 0      0.00%    100.00% # Number of instructions issued per FU type, per thread (Count)
system.cpu.issuedInstType_0::total           14137346                       # Number of instructions issued per FU type, per thread (Count)
system.cpu.issueRate                         0.853843                       # Inst issue rate ((Count/Cycle))
system.cpu.fuBusy                             1401796                       # FU busy when requested (Count)
system.cpu.fuBusyRate                        0.099156                       # FU busy rate (busy events/executed inst) ((Count/Count))
system.cpu.intInstQueueReads                 24221879                       # Number of integer instruction queue reads (Count)
system.cpu.intInstQueueWrites                 3856267                       # Number of integer instruction queue writes (Count)
system.cpu.intInstQueueWakeupAccesses         3830422                       # Number of integer instruction queue wakeup accesses (Count)
system.cpu.fpInstQueueReads                  13766220                       # Number of floating instruction queue reads (Count)
system.cpu.fpInstQueueWrites                  2111331                       # Number of floating instruction queue writes (Count)
system.cpu.fpInstQueueWakeupAccesses          2097153                       # Number of floating instruction queue wakeup accesses (Count)
system.cpu.vecInstQueueReads                  8239541                       # Number of vector instruction queue reads (Count)
system.cpu.vecInstQueueWrites                 2855625                       # Number of vector instruction queue writes (Count)
system.cpu.vecInstQueueWakeupAccesses         2829746                       # Number of vector instruction queue wakeup accesses (Count)
system.cpu.intAluAccesses                     3836484                       # Number of integer alu accesses (Count)
system.cpu.fpAluAccesses                      7265244                       # Number of floating point alu accesses (Count)
system.cpu.vecAluAccesses                     4437390                       # Number of vector alu accesses (Count)
system.cpu.numRecvResp                        2688340                       # Number of received responses (Count)
system.cpu.numRecvRespBytes                  26223994                       # Number of received response bytes (Byte)
system.cpu.recvRespAvgBW                         1.58                       # Average bandwidth of received responses ((Byte/Cycle))
system.cpu.recvRespAvgSize                       9.75                       # Average packet size per received response ((Byte/Count))
system.cpu.recvRespAvgRate                       0.16                       # Average rate of received responses per cycle ((Count/Cycle))
system.cpu.recvRespAvgRetryRate                  0.00                       # Average retry rate per received response ((Count/Count))
system.cpu.numSendRetryResp                         0                       # Number of retry responses sent (Count)
system.cpu.numSquashedInsts                      8491                       # Number of squashed instructions skipped in execute (Count)
system.cpu.numSwp                                   0                       # Number of swp insts executed (Count)
system.cpu.timesIdled                             123                       # Number of times that the entire CPU went into an idle state and unscheduled itself (Count)
system.cpu.idleCycles                            8369                       # Total number of cycles that the CPU has spent unscheduled due to idling (Cycle)
system.cpu.MemDepUnit__0.insertedLoads        2631441                       # Number of loads inserted to the mem dependence unit. (Count)
system.cpu.MemDepUnit__0.insertedStores         62326                       # Number of stores inserted to the mem dependence unit. (Count)
system.cpu.MemDepUnit__0.conflictingLoads            1                       # Number of conflicting loads. (Count)
system.cpu.MemDepUnit__0.conflictingStores            2                       # Number of conflicting stores. (Count)
system.cpu.MemDepUnit__1.insertedLoads              0                       # Number of loads inserted to the mem dependence unit. (Count)
system.cpu.MemDepUnit__1.insertedStores             0                       # Number of stores inserted to the mem dependence unit. (Count)
system.cpu.MemDepUnit__1.conflictingLoads            0                       # Number of conflicting loads. (Count)
system.cpu.MemDepUnit__1.conflictingStores            0                       # Number of conflicting stores. (Count)
system.cpu.MemDepUnit__2.insertedLoads              0                       # Number of loads inserted to the mem dependence unit. (Count)
system.cpu.MemDepUnit__2.insertedStores             0                       # Number of stores inserted to the mem dependence unit. (Count)
system.cpu.MemDepUnit__2.conflictingLoads            0                       # Number of conflicting loads. (Count)
system.cpu.MemDepUnit__2.conflictingStores            0                       # Number of conflicting stores. (Count)
system.cpu.MemDepUnit__3.insertedLoads              0                       # Number of loads inserted to the mem dependence unit. (Count)
system.cpu.MemDepUnit__3.insertedStores             0                       # Number of stores inserted to the mem dependence unit. (Count)
system.cpu.MemDepUnit__3.conflictingLoads            0                       # Number of conflicting loads. (Count)
system.cpu.MemDepUnit__3.conflictingStores            0                       # Number of conflicting stores. (Count)
system.cpu.bac.fetchTargets                         0                       # Number of fetch targets created  (Count)
system.cpu.bac.branches                        610564                       # Number of branches that BAC encountered (Count)
system.cpu.bac.predTakenBranches               609344                       # Number of branches that BAC predicted taken. (Count)
system.cpu.bac.branchesNotLastuOp                   0                       # Number of branches that fetch encountered which are not the last uOp within a macrooperation. Jump to itself. (Count)
system.cpu.bac.branchMisspredict                 2428                       # Number of mispredicted branches (Count)
system.cpu.bac.noBranchMisspredict                211                       # Number of non-branch instructions mispredicted (Count)
system.cpu.bac.squashBranchDecode                 116                       # Number of branches squashed from decode (Count)
system.cpu.bac.squashBranchCommit                2312                       # Number of branches squashed from commit (Count)
system.cpu.bac.preDecUpdate::NoBranch               0                       # Number of branches extracted from the predecoder (Count)
system.cpu.bac.preDecUpdate::Return                 0                       # Number of branches extracted from the predecoder (Count)
system.cpu.bac.preDecUpdate::CallDirect             0                       # Number of branches extracted from the predecoder (Count)
system.cpu.bac.preDecUpdate::CallIndirect            0                       # Number of branches extracted from the predecoder (Count)
system.cpu.bac.preDecUpdate::DirectCond             0                       # Number of branches extracted from the predecoder (Count)
system.cpu.bac.preDecUpdate::DirectUncond            0                       # Number of branches extracted from the predecoder (Count)
system.cpu.bac.preDecUpdate::IndirectCond            0                       # Number of branches extracted from the predecoder (Count)
system.cpu.bac.preDecUpdate::IndirectUncond            0                       # Number of branches extracted from the predecoder (Count)
system.cpu.bac.preDecUpdate::total                  0                       # Number of branches extracted from the predecoder (Count)
system.cpu.bac.noHistByType::NoBranch               0                       # Number and type of branches that were undetected by the BPU. (Count)
system.cpu.bac.noHistByType::Return                 0                       # Number and type of branches that were undetected by the BPU. (Count)
system.cpu.bac.noHistByType::CallDirect             0                       # Number and type of branches that were undetected by the BPU. (Count)
system.cpu.bac.noHistByType::CallIndirect            0                       # Number and type of branches that were undetected by the BPU. (Count)
system.cpu.bac.noHistByType::DirectCond             0                       # Number and type of branches that were undetected by the BPU. (Count)
system.cpu.bac.noHistByType::DirectUncond            0                       # Number and type of branches that were undetected by the BPU. (Count)
system.cpu.bac.noHistByType::IndirectCond            0                       # Number and type of branches that were undetected by the BPU. (Count)
system.cpu.bac.noHistByType::IndirectUncond            0                       # Number and type of branches that were undetected by the BPU. (Count)
system.cpu.bac.noHistByType::total                  0                       # Number and type of branches that were undetected by the BPU. (Count)
system.cpu.bac.typeMissmatch                        0                       # Number branches where the branch type miss match (Count)
system.cpu.bac.multiBranchInst                      0                       # Number branches because its not the last branch. (Count)
system.cpu.bac.ftSizeDist::samples                  0                       # Number of bytes per fetch target (Count)
system.cpu.bac.ftSizeDist::mean                   nan                       # Number of bytes per fetch target (Count)
system.cpu.bac.ftSizeDist::stdev                  nan                       # Number of bytes per fetch target (Count)
system.cpu.bac.ftSizeDist::underflows               0                       # Number of bytes per fetch target (Count)
system.cpu.bac.ftSizeDist::0-3                      0                       # Number of bytes per fetch target (Count)
system.cpu.bac.ftSizeDist::4-7                      0                       # Number of bytes per fetch target (Count)
system.cpu.bac.ftSizeDist::8-11                     0                       # Number of bytes per fetch target (Count)
system.cpu.bac.ftSizeDist::12-15                    0                       # Number of bytes per fetch target (Count)
system.cpu.bac.ftSizeDist::16-19                    0                       # Number of bytes per fetch target (Count)
system.cpu.bac.ftSizeDist::20-23                    0                       # Number of bytes per fetch target (Count)
system.cpu.bac.ftSizeDist::24-27                    0                       # Number of bytes per fetch target (Count)
system.cpu.bac.ftSizeDist::28-31                    0                       # Number of bytes per fetch target (Count)
system.cpu.bac.ftSizeDist::32                       0                       # Number of bytes per fetch target (Count)
system.cpu.bac.ftSizeDist::overflows                0                       # Number of bytes per fetch target (Count)
system.cpu.bac.ftSizeDist::min_value                0                       # Number of bytes per fetch target (Count)
system.cpu.bac.ftSizeDist::max_value                0                       # Number of bytes per fetch target (Count)
system.cpu.bac.ftSizeDist::total                    0                       # Number of bytes per fetch target (Count)
system.cpu.bac.ftNumber::samples                    0                       # Number of fetch target inserted to the FTQ per cycle (Count)
system.cpu.bac.ftNumber::mean                     nan                       # Number of fetch target inserted to the FTQ per cycle (Count)
system.cpu.bac.ftNumber::stdev                    nan                       # Number of fetch target inserted to the FTQ per cycle (Count)
system.cpu.bac.ftNumber::underflows                 0                       # Number of fetch target inserted to the FTQ per cycle (Count)
system.cpu.bac.ftNumber::0                          0                       # Number of fetch target inserted to the FTQ per cycle (Count)
system.cpu.bac.ftNumber::1                          0                       # Number of fetch target inserted to the FTQ per cycle (Count)
system.cpu.bac.ftNumber::2                          0                       # Number of fetch target inserted to the FTQ per cycle (Count)
system.cpu.bac.ftNumber::3                          0                       # Number of fetch target inserted to the FTQ per cycle (Count)
system.cpu.bac.ftNumber::4                          0                       # Number of fetch target inserted to the FTQ per cycle (Count)
system.cpu.bac.ftNumber::overflows                  0                       # Number of fetch target inserted to the FTQ per cycle (Count)
system.cpu.bac.ftNumber::min_value                  0                       # Number of fetch target inserted to the FTQ per cycle (Count)
system.cpu.bac.ftNumber::max_value                  0                       # Number of fetch target inserted to the FTQ per cycle (Count)
system.cpu.bac.ftNumber::total                      0                       # Number of fetch target inserted to the FTQ per cycle (Count)
system.cpu.branchPred.lookups_0::NoBranch            0      0.00%      0.00% # Number of BP lookups (Count)
system.cpu.branchPred.lookups_0::Return           238      0.04%      0.04% # Number of BP lookups (Count)
system.cpu.branchPred.lookups_0::CallDirect          199      0.03%      0.07% # Number of BP lookups (Count)
system.cpu.branchPred.lookups_0::CallIndirect           51      0.01%      0.08% # Number of BP lookups (Count)
system.cpu.branchPred.lookups_0::DirectCond       561021     91.89%     91.97% # Number of BP lookups (Count)
system.cpu.branchPred.lookups_0::DirectUncond          233      0.04%     92.00% # Number of BP lookups (Count)
system.cpu.branchPred.lookups_0::IndirectCond            0      0.00%     92.00% # Number of BP lookups (Count)
system.cpu.branchPred.lookups_0::IndirectUncond        48822      8.00%    100.00% # Number of BP lookups (Count)
system.cpu.branchPred.lookups_0::total         610564                       # Number of BP lookups (Count)
system.cpu.branchPred.squashes_0::NoBranch            0      0.00%      0.00% # Number of branches that got squashed (completely removed) as an earlier branch was mispredicted. (Count)
system.cpu.branchPred.squashes_0::Return          146      0.92%      0.92% # Number of branches that got squashed (completely removed) as an earlier branch was mispredicted. (Count)
system.cpu.branchPred.squashes_0::CallDirect          119      0.75%      1.68% # Number of branches that got squashed (completely removed) as an earlier branch was mispredicted. (Count)
system.cpu.branchPred.squashes_0::CallIndirect           38      0.24%      1.92% # Number of branches that got squashed (completely removed) as an earlier branch was mispredicted. (Count)
system.cpu.branchPred.squashes_0::DirectCond         9551     60.39%     62.31% # Number of branches that got squashed (completely removed) as an earlier branch was mispredicted. (Count)
system.cpu.branchPred.squashes_0::DirectUncond          153      0.97%     63.28% # Number of branches that got squashed (completely removed) as an earlier branch was mispredicted. (Count)
system.cpu.branchPred.squashes_0::IndirectCond            0      0.00%     63.28% # Number of branches that got squashed (completely removed) as an earlier branch was mispredicted. (Count)
system.cpu.branchPred.squashes_0::IndirectUncond         5808     36.72%    100.00% # Number of branches that got squashed (completely removed) as an earlier branch was mispredicted. (Count)
system.cpu.branchPred.squashes_0::total         15815                       # Number of branches that got squashed (completely removed) as an earlier branch was mispredicted. (Count)
system.cpu.branchPred.corrected_0::NoBranch            0      0.00%      0.00% # Number of branches that got corrected but not yet commited. Branches get corrected by decode or after execute. Also a branch misprediction can be detected out-of-order. Therefore, a corrected branch might not end up beeing committed in case an even earlier branch was mispredicted (Count)
system.cpu.branchPred.corrected_0::Return            2      0.08%      0.08% # Number of branches that got corrected but not yet commited. Branches get corrected by decode or after execute. Also a branch misprediction can be detected out-of-order. Therefore, a corrected branch might not end up beeing committed in case an even earlier branch was mispredicted (Count)
system.cpu.branchPred.corrected_0::CallDirect           61      2.51%      2.59% # Number of branches that got corrected but not yet commited. Branches get corrected by decode or after execute. Also a branch misprediction can be detected out-of-order. Therefore, a corrected branch might not end up beeing committed in case an even earlier branch was mispredicted (Count)
system.cpu.branchPred.corrected_0::CallIndirect           14      0.58%      3.17% # Number of branches that got corrected but not yet commited. Branches get corrected by decode or after execute. Also a branch misprediction can be detected out-of-order. Therefore, a corrected branch might not end up beeing committed in case an even earlier branch was mispredicted (Count)
system.cpu.branchPred.corrected_0::DirectCond         2274     93.66%     96.83% # Number of branches that got corrected but not yet commited. Branches get corrected by decode or after execute. Also a branch misprediction can be detected out-of-order. Therefore, a corrected branch might not end up beeing committed in case an even earlier branch was mispredicted (Count)
system.cpu.branchPred.corrected_0::DirectUncond           55      2.27%     99.09% # Number of branches that got corrected but not yet commited. Branches get corrected by decode or after execute. Also a branch misprediction can be detected out-of-order. Therefore, a corrected branch might not end up beeing committed in case an even earlier branch was mispredicted (Count)
system.cpu.branchPred.corrected_0::IndirectCond            0      0.00%     99.09% # Number of branches that got corrected but not yet commited. Branches get corrected by decode or after execute. Also a branch misprediction can be detected out-of-order. Therefore, a corrected branch might not end up beeing committed in case an even earlier branch was mispredicted (Count)
system.cpu.branchPred.corrected_0::IndirectUncond           22      0.91%    100.00% # Number of branches that got corrected but not yet commited. Branches get corrected by decode or after execute. Also a branch misprediction can be detected out-of-order. Therefore, a corrected branch might not end up beeing committed in case an even earlier branch was mispredicted (Count)
system.cpu.branchPred.corrected_0::total         2428                       # Number of branches that got corrected but not yet commited. Branches get corrected by decode or after execute. Also a branch misprediction can be detected out-of-order. Therefore, a corrected branch might not end up beeing committed in case an even earlier branch was mispredicted (Count)
system.cpu.branchPred.earlyResteers_0::NoBranch            0      0.00%      0.00% # Number of branches that got redirected after decode. (Count)
system.cpu.branchPred.earlyResteers_0::Return            0      0.00%      0.00% # Number of branches that got redirected after decode. (Count)
system.cpu.branchPred.earlyResteers_0::CallDirect           61     52.59%     52.59% # Number of branches that got redirected after decode. (Count)
system.cpu.branchPred.earlyResteers_0::CallIndirect            0      0.00%     52.59% # Number of branches that got redirected after decode. (Count)
system.cpu.branchPred.earlyResteers_0::DirectCond            0      0.00%     52.59% # Number of branches that got redirected after decode. (Count)
system.cpu.branchPred.earlyResteers_0::DirectUncond           55     47.41%    100.00% # Number of branches that got redirected after decode. (Count)
system.cpu.branchPred.earlyResteers_0::IndirectCond            0      0.00%    100.00% # Number of branches that got redirected after decode. (Count)
system.cpu.branchPred.earlyResteers_0::IndirectUncond            0      0.00%    100.00% # Number of branches that got redirected after decode. (Count)
system.cpu.branchPred.earlyResteers_0::total          116                       # Number of branches that got redirected after decode. (Count)
system.cpu.branchPred.committed_0::NoBranch            0      0.00%      0.00% # Number of branches finally committed  (Count)
system.cpu.branchPred.committed_0::Return           92      0.02%      0.02% # Number of branches finally committed  (Count)
system.cpu.branchPred.committed_0::CallDirect           80      0.01%      0.03% # Number of branches finally committed  (Count)
system.cpu.branchPred.committed_0::CallIndirect           13      0.00%      0.03% # Number of branches finally committed  (Count)
system.cpu.branchPred.committed_0::DirectCond       551469     92.73%     92.76% # Number of branches finally committed  (Count)
system.cpu.branchPred.committed_0::DirectUncond           66      0.01%     92.77% # Number of branches finally committed  (Count)
system.cpu.branchPred.committed_0::IndirectCond            0      0.00%     92.77% # Number of branches finally committed  (Count)
system.cpu.branchPred.committed_0::IndirectUncond        43014      7.23%    100.00% # Number of branches finally committed  (Count)
system.cpu.branchPred.committed_0::total       594734                       # Number of branches finally committed  (Count)
system.cpu.branchPred.mispredicted_0::NoBranch            0      0.00%      0.00% # Number of committed branches that were mispredicted. (Count)
system.cpu.branchPred.mispredicted_0::Return            0      0.00%      0.00% # Number of committed branches that were mispredicted. (Count)
system.cpu.branchPred.mispredicted_0::CallDirect           44      1.87%      1.87% # Number of committed branches that were mispredicted. (Count)
system.cpu.branchPred.mispredicted_0::CallIndirect           13      0.55%      2.42% # Number of committed branches that were mispredicted. (Count)
system.cpu.branchPred.mispredicted_0::DirectCond         2250     95.54%     97.96% # Number of committed branches that were mispredicted. (Count)
system.cpu.branchPred.mispredicted_0::DirectUncond           26      1.10%     99.07% # Number of committed branches that were mispredicted. (Count)
system.cpu.branchPred.mispredicted_0::IndirectCond            0      0.00%     99.07% # Number of committed branches that were mispredicted. (Count)
system.cpu.branchPred.mispredicted_0::IndirectUncond           22      0.93%    100.00% # Number of committed branches that were mispredicted. (Count)
system.cpu.branchPred.mispredicted_0::total         2355                       # Number of committed branches that were mispredicted. (Count)
system.cpu.branchPred.mispredictDueToPredictor_0::NoBranch            0      0.00%      0.00% # Number of committed branches that were mispredicted by the predictor. (Count)
system.cpu.branchPred.mispredictDueToPredictor_0::Return            0      0.00%      0.00% # Number of committed branches that were mispredicted by the predictor. (Count)
system.cpu.branchPred.mispredictDueToPredictor_0::CallDirect            0      0.00%      0.00% # Number of committed branches that were mispredicted by the predictor. (Count)
system.cpu.branchPred.mispredictDueToPredictor_0::CallIndirect            0      0.00%      0.00% # Number of committed branches that were mispredicted by the predictor. (Count)
system.cpu.branchPred.mispredictDueToPredictor_0::DirectCond         2171    100.00%    100.00% # Number of committed branches that were mispredicted by the predictor. (Count)
system.cpu.branchPred.mispredictDueToPredictor_0::DirectUncond            0      0.00%    100.00% # Number of committed branches that were mispredicted by the predictor. (Count)
system.cpu.branchPred.mispredictDueToPredictor_0::IndirectCond            0      0.00%    100.00% # Number of committed branches that were mispredicted by the predictor. (Count)
system.cpu.branchPred.mispredictDueToPredictor_0::IndirectUncond            0      0.00%    100.00% # Number of committed branches that were mispredicted by the predictor. (Count)
system.cpu.branchPred.mispredictDueToPredictor_0::total         2171                       # Number of committed branches that were mispredicted by the predictor. (Count)
system.cpu.branchPred.mispredictDueToBTBMiss_0::NoBranch            0      0.00%      0.00% # Number of committed branches that were mispredicted because of a BTB miss. (Count)
system.cpu.branchPred.mispredictDueToBTBMiss_0::Return            0      0.00%      0.00% # Number of committed branches that were mispredicted because of a BTB miss. (Count)
system.cpu.branchPred.mispredictDueToBTBMiss_0::CallDirect           44     23.91%     23.91% # Number of committed branches that were mispredicted because of a BTB miss. (Count)
system.cpu.branchPred.mispredictDueToBTBMiss_0::CallIndirect           13      7.07%     30.98% # Number of committed branches that were mispredicted because of a BTB miss. (Count)
system.cpu.branchPred.mispredictDueToBTBMiss_0::DirectCond           79     42.93%     73.91% # Number of committed branches that were mispredicted because of a BTB miss. (Count)
system.cpu.branchPred.mispredictDueToBTBMiss_0::DirectUncond           26     14.13%     88.04% # Number of committed branches that were mispredicted because of a BTB miss. (Count)
system.cpu.branchPred.mispredictDueToBTBMiss_0::IndirectCond            0      0.00%     88.04% # Number of committed branches that were mispredicted because of a BTB miss. (Count)
system.cpu.branchPred.mispredictDueToBTBMiss_0::IndirectUncond           22     11.96%    100.00% # Number of committed branches that were mispredicted because of a BTB miss. (Count)
system.cpu.branchPred.mispredictDueToBTBMiss_0::total          184                       # Number of committed branches that were mispredicted because of a BTB miss. (Count)
system.cpu.branchPred.targetProvider_0::NoTarget         1220      0.20%      0.20% # The component providing the target for taken branches (Count)
system.cpu.branchPred.targetProvider_0::BTB       560371     91.78%     91.98% # The component providing the target for taken branches (Count)
system.cpu.branchPred.targetProvider_0::RAS          238      0.04%     92.02% # The component providing the target for taken branches (Count)
system.cpu.branchPred.targetProvider_0::Indirect        48735      7.98%    100.00% # The component providing the target for taken branches (Count)
system.cpu.branchPred.targetProvider_0::total       610564                       # The component providing the target for taken branches (Count)
system.cpu.branchPred.targetWrong_0::NoBranch          283     11.74%     11.74% # Number of branches where the target was incorrect or not available at prediction time. (Count)
system.cpu.branchPred.targetWrong_0::Return         2126     88.18%     99.92% # Number of branches where the target was incorrect or not available at prediction time. (Count)
system.cpu.branchPred.targetWrong_0::CallDirect            2      0.08%    100.00% # Number of branches where the target was incorrect or not available at prediction time. (Count)
system.cpu.branchPred.targetWrong_0::CallIndirect            0      0.00%    100.00% # Number of branches where the target was incorrect or not available at prediction time. (Count)
system.cpu.branchPred.targetWrong_0::DirectCond            0      0.00%    100.00% # Number of branches where the target was incorrect or not available at prediction time. (Count)
system.cpu.branchPred.targetWrong_0::DirectUncond            0      0.00%    100.00% # Number of branches where the target was incorrect or not available at prediction time. (Count)
system.cpu.branchPred.targetWrong_0::IndirectCond            0      0.00%    100.00% # Number of branches where the target was incorrect or not available at prediction time. (Count)
system.cpu.branchPred.targetWrong_0::IndirectUncond            0      0.00%    100.00% # Number of branches where the target was incorrect or not available at prediction time. (Count)
system.cpu.branchPred.targetWrong_0::total         2411                       # Number of branches where the target was incorrect or not available at prediction time. (Count)
system.cpu.branchPred.condPredicted            561021                       # Number of conditional branches predicted (Count)
system.cpu.branchPred.condPredictedTaken       560408                       # Number of conditional branches predicted as taken (Count)
system.cpu.branchPred.condIncorrect              2355                       # Number of conditional branches incorrect (Count)
system.cpu.branchPred.predTakenBTBMiss            154                       # Number of branches predicted taken but missed in BTB (Count)
system.cpu.branchPred.BTBLookups               610564                       # Number of BTB lookups (Count)
system.cpu.branchPred.BTBUpdates                  264                       # Number of BTB updates (Count)
system.cpu.branchPred.BTBHits                  560471                       # Number of BTB hits (Count)
system.cpu.branchPred.BTBHitRatio            0.917956                       # BTB Hit Ratio (Ratio)
system.cpu.branchPred.BTBMispredicted             207                       # Number BTB mispredictions. No target found or target wrong (Count)
system.cpu.branchPred.indirectLookups           48873                       # Number of indirect predictor lookups. (Count)
system.cpu.branchPred.indirectHits              48735                       # Number of indirect target hits. (Count)
system.cpu.branchPred.indirectMisses              138                       # Number of indirect misses. (Count)
system.cpu.branchPred.indirectMispredicted            0                       # Number of mispredicted indirect branches. (Count)
system.cpu.branchPred.btb.lookups::NoBranch            0      0.00%      0.00% # Number of BTB lookups (Count)
system.cpu.branchPred.btb.lookups::Return          238      0.04%      0.04% # Number of BTB lookups (Count)
system.cpu.branchPred.btb.lookups::CallDirect          199      0.03%      0.07% # Number of BTB lookups (Count)
system.cpu.branchPred.btb.lookups::CallIndirect           51      0.01%      0.08% # Number of BTB lookups (Count)
system.cpu.branchPred.btb.lookups::DirectCond       561021     91.89%     91.97% # Number of BTB lookups (Count)
system.cpu.branchPred.btb.lookups::DirectUncond          233      0.04%     92.00% # Number of BTB lookups (Count)
system.cpu.branchPred.btb.lookups::IndirectCond            0      0.00%     92.00% # Number of BTB lookups (Count)
system.cpu.branchPred.btb.lookups::IndirectUncond        48822      8.00%    100.00% # Number of BTB lookups (Count)
system.cpu.branchPred.btb.lookups::total       610564                       # Number of BTB lookups (Count)
system.cpu.branchPred.btb.misses::NoBranch            0      0.00%      0.00% # Number of BTB misses (Count)
system.cpu.branchPred.btb.misses::Return          238      0.48%      0.48% # Number of BTB misses (Count)
system.cpu.branchPred.btb.misses::CallDirect          114      0.23%      0.70% # Number of BTB misses (Count)
system.cpu.branchPred.btb.misses::CallIndirect           51      0.10%      0.80% # Number of BTB misses (Count)
system.cpu.branchPred.btb.misses::DirectCond          749      1.50%      2.30% # Number of BTB misses (Count)
system.cpu.branchPred.btb.misses::DirectUncond          119      0.24%      2.54% # Number of BTB misses (Count)
system.cpu.branchPred.btb.misses::IndirectCond            0      0.00%      2.54% # Number of BTB misses (Count)
system.cpu.branchPred.btb.misses::IndirectUncond        48822     97.46%    100.00% # Number of BTB misses (Count)
system.cpu.branchPred.btb.misses::total         50093                       # Number of BTB misses (Count)
system.cpu.branchPred.btb.updates::NoBranch            0      0.00%      0.00% # Number of BTB updates (Count)
system.cpu.branchPred.btb.updates::Return            0      0.00%      0.00% # Number of BTB updates (Count)
system.cpu.branchPred.btb.updates::CallDirect           61     23.11%     23.11% # Number of BTB updates (Count)
system.cpu.branchPred.btb.updates::CallIndirect            0      0.00%     23.11% # Number of BTB updates (Count)
system.cpu.branchPred.btb.updates::DirectCond          148     56.06%     79.17% # Number of BTB updates (Count)
system.cpu.branchPred.btb.updates::DirectUncond           55     20.83%    100.00% # Number of BTB updates (Count)
system.cpu.branchPred.btb.updates::IndirectCond            0      0.00%    100.00% # Number of BTB updates (Count)
system.cpu.branchPred.btb.updates::IndirectUncond            0      0.00%    100.00% # Number of BTB updates (Count)
system.cpu.branchPred.btb.updates::total          264                       # Number of BTB updates (Count)
system.cpu.branchPred.btb.mispredict::NoBranch            0      0.00%      0.00% # Number of BTB mispredictions. No target found or target wrong. (Count)
system.cpu.branchPred.btb.mispredict::Return            0      0.00%      0.00% # Number of BTB mispredictions. No target found or target wrong. (Count)
system.cpu.branchPred.btb.mispredict::CallDirect           61     23.11%     23.11% # Number of BTB mispredictions. No target found or target wrong. (Count)
system.cpu.branchPred.btb.mispredict::CallIndirect            0      0.00%     23.11% # Number of BTB mispredictions. No target found or target wrong. (Count)
system.cpu.branchPred.btb.mispredict::DirectCond          148     56.06%     79.17% # Number of BTB mispredictions. No target found or target wrong. (Count)
system.cpu.branchPred.btb.mispredict::DirectUncond           55     20.83%    100.00% # Number of BTB mispredictions. No target found or target wrong. (Count)
system.cpu.branchPred.btb.mispredict::IndirectCond            0      0.00%    100.00% # Number of BTB mispredictions. No target found or target wrong. (Count)
system.cpu.branchPred.btb.mispredict::IndirectUncond            0      0.00%    100.00% # Number of BTB mispredictions. No target found or target wrong. (Count)
system.cpu.branchPred.btb.mispredict::total          264                       # Number of BTB mispredictions. No target found or target wrong. (Count)
system.cpu.branchPred.btb.power_state.pwrStateResidencyTicks::UNDEFINED  16557305000                       # Cumulative time (in ticks) in various power states (Tick)
system.cpu.branchPred.indirectBranchPred.lookups        48873                       # Number of lookups (Count)
system.cpu.branchPred.indirectBranchPred.hits        48735                       # Number of hits of a tag (Count)
system.cpu.branchPred.indirectBranchPred.misses          138                       # Number of misses (Count)
system.cpu.branchPred.indirectBranchPred.targetRecords           36                       # Number of targets that where recorded/installed in the cache (Count)
system.cpu.branchPred.indirectBranchPred.indirectRecords        48909                       # Number of indirect branches/calls recorded in the indirect hist (Count)
system.cpu.branchPred.indirectBranchPred.speculativeOverflows            0                       # Number of times more than the allowed capacity for speculative branches/calls where in flight and destroy the path history (Count)
system.cpu.branchPred.ras.pushes                  396                       # Number of times a PC was pushed onto the RAS (Count)
system.cpu.branchPred.ras.pops                    395                       # Number of times a PC was poped from the RAS (Count)
system.cpu.branchPred.ras.squashes                303                       # Number of times the stack operation was squashed due to wrong speculation. (Count)
system.cpu.branchPred.ras.used                     92                       # Number of times the RAS is the provider (Count)
system.cpu.branchPred.ras.correct                  92                       # Number of times the RAS is the provider and the prediction is correct (Count)
system.cpu.branchPred.ras.incorrect                 0                       # Number of times the RAS is the provider and the prediction is wrong (Count)
system.cpu.commit.status::running            16546052     99.98%     99.98% # Number of cycles commit is running (Cycle)
system.cpu.commit.status::idle                      1      0.00%     99.98% # Number of cycles commit is idle (Cycle)
system.cpu.commit.status::trapPending            2884      0.02%    100.00% # Number of cycles commit is processing a trap (Cycle)
system.cpu.commit.commitSquashedInsts           47411                       # The number of squashed insts skipped by commit (Count)
system.cpu.commit.commitNonSpecStalls              14                       # The number of times commit has been forced to stall to communicate backwards (Count)
system.cpu.commit.branchMispredicts              2312                       # The number of times a branch was mispredicted (Count)
system.cpu.commit.numCommittedDist::samples     16546414                       # Number of insts commited each cycle (Count)
system.cpu.commit.numCommittedDist::mean     0.527396                       # Number of insts commited each cycle (Count)
system.cpu.commit.numCommittedDist::stdev     1.967086                       # Number of insts commited each cycle (Count)
system.cpu.commit.numCommittedDist::underflows            0      0.00%      0.00% # Number of insts commited each cycle (Count)
system.cpu.commit.numCommittedDist::0        15392996     93.03%     93.03% # Number of insts commited each cycle (Count)
system.cpu.commit.numCommittedDist::1           22023      0.13%     93.16% # Number of insts commited each cycle (Count)
system.cpu.commit.numCommittedDist::2           26238      0.16%     93.32% # Number of insts commited each cycle (Count)
system.cpu.commit.numCommittedDist::3           15614      0.09%     93.42% # Number of insts commited each cycle (Count)
system.cpu.commit.numCommittedDist::4           19259      0.12%     93.53% # Number of insts commited each cycle (Count)
system.cpu.commit.numCommittedDist::5           10580      0.06%     93.60% # Number of insts commited each cycle (Count)
system.cpu.commit.numCommittedDist::6            1121      0.01%     93.60% # Number of insts commited each cycle (Count)
system.cpu.commit.numCommittedDist::7             158      0.00%     93.60% # Number of insts commited each cycle (Count)
system.cpu.commit.numCommittedDist::8         1058425      6.40%    100.00% # Number of insts commited each cycle (Count)
system.cpu.commit.numCommittedDist::overflows            0      0.00%    100.00% # Number of insts commited each cycle (Count)
system.cpu.commit.numCommittedDist::min_value            0                       # Number of insts commited each cycle (Count)
system.cpu.commit.numCommittedDist::max_value            8                       # Number of insts commited each cycle (Count)
system.cpu.commit.numCommittedDist::total     16546414                       # Number of insts commited each cycle (Count)
system.cpu.commit.amos                              0                       # Number of atomic instructions committed (Count)
system.cpu.commit.membars                           0                       # Number of memory barriers committed (Count)
system.cpu.commit.committedInstType_0::No_OpClass            0      0.00%      0.00% # Class of committed instruction (Count)
system.cpu.commit.committedInstType_0::IntAlu      3783490     43.36%     43.36% # Class of committed instruction (Count)
system.cpu.commit.committedInstType_0::IntMult            7      0.00%     43.36% # Class of committed instruction (Count)
system.cpu.commit.committedInstType_0::IntDiv            2      0.00%     43.36% # Class of committed instruction (Count)
system.cpu.commit.committedInstType_0::FloatAdd            0      0.00%     43.36% # Class of committed instruction (Count)
system.cpu.commit.committedInstType_0::FloatCmp            0      0.00%     43.36% # Class of committed instruction (Count)
system.cpu.commit.committedInstType_0::FloatCvt            0      0.00%     43.36% # Class of committed instruction (Count)
system.cpu.commit.committedInstType_0::FloatMult            0      0.00%     43.36% # Class of committed instruction (Count)
system.cpu.commit.committedInstType_0::FloatMultAcc            0      0.00%     43.36% # Class of committed instruction (Count)
system.cpu.commit.committedInstType_0::FloatDiv            0      0.00%     43.36% # Class of committed instruction (Count)
system.cpu.commit.committedInstType_0::FloatMisc            0      0.00%     43.36% # Class of committed instruction (Count)
system.cpu.commit.committedInstType_0::FloatSqrt            0      0.00%     43.36% # Class of committed instruction (Count)
system.cpu.commit.committedInstType_0::SimdAdd        16384      0.19%     43.54% # Class of committed instruction (Count)
system.cpu.commit.committedInstType_0::SimdAddAcc            0      0.00%     43.54% # Class of committed instruction (Count)
system.cpu.commit.committedInstType_0::SimdAlu            0      0.00%     43.54% # Class of committed instruction (Count)
system.cpu.commit.committedInstType_0::SimdCmp            0      0.00%     43.54% # Class of committed instruction (Count)
system.cpu.commit.committedInstType_0::SimdCvt            0      0.00%     43.54% # Class of committed instruction (Count)
system.cpu.commit.committedInstType_0::SimdMisc        16390      0.19%     43.73% # Class of committed instruction (Count)
system.cpu.commit.committedInstType_0::SimdMult        24576      0.28%     44.01% # Class of committed instruction (Count)
system.cpu.commit.committedInstType_0::SimdMultAcc        16384      0.19%     44.20% # Class of committed instruction (Count)
system.cpu.commit.committedInstType_0::SimdMatMultAcc            0      0.00%     44.20% # Class of committed instruction (Count)
system.cpu.commit.committedInstType_0::SimdShift        16384      0.19%     44.39% # Class of committed instruction (Count)
system.cpu.commit.committedInstType_0::SimdShiftAcc            0      0.00%     44.39% # Class of committed instruction (Count)
system.cpu.commit.committedInstType_0::SimdDiv            0      0.00%     44.39% # Class of committed instruction (Count)
system.cpu.commit.committedInstType_0::SimdSqrt            0      0.00%     44.39% # Class of committed instruction (Count)
system.cpu.commit.committedInstType_0::SimdFloatAdd        16384      0.19%     44.58% # Class of committed instruction (Count)
system.cpu.commit.committedInstType_0::SimdFloatAlu            0      0.00%     44.58% # Class of committed instruction (Count)
system.cpu.commit.committedInstType_0::SimdFloatCmp            0      0.00%     44.58% # Class of committed instruction (Count)
system.cpu.commit.committedInstType_0::SimdFloatCvt        16384      0.19%     44.76% # Class of committed instruction (Count)
system.cpu.commit.committedInstType_0::SimdFloatDiv            0      0.00%     44.76% # Class of committed instruction (Count)
system.cpu.commit.committedInstType_0::SimdFloatMisc            0      0.00%     44.76% # Class of committed instruction (Count)
system.cpu.commit.committedInstType_0::SimdFloatMult            0      0.00%     44.76% # Class of committed instruction (Count)
system.cpu.commit.committedInstType_0::SimdFloatMultAcc      2097152     24.03%     68.80% # Class of committed instruction (Count)
system.cpu.commit.committedInstType_0::SimdFloatMatMultAcc            0      0.00%     68.80% # Class of committed instruction (Count)
system.cpu.commit.committedInstType_0::SimdFloatSqrt            0      0.00%     68.80% # Class of committed instruction (Count)
system.cpu.commit.committedInstType_0::SimdReduceAdd            0      0.00%     68.80% # Class of committed instruction (Count)
system.cpu.commit.committedInstType_0::SimdReduceAlu            0      0.00%     68.80% # Class of committed instruction (Count)
system.cpu.commit.committedInstType_0::SimdReduceCmp            0      0.00%     68.80% # Class of committed instruction (Count)
system.cpu.commit.committedInstType_0::SimdFloatReduceAdd            0      0.00%     68.80% # Class of committed instruction (Count)
system.cpu.commit.committedInstType_0::SimdFloatReduceCmp            0      0.00%     68.80% # Class of committed instruction (Count)
system.cpu.commit.committedInstType_0::SimdAes            0      0.00%     68.80% # Class of committed instruction (Count)
system.cpu.commit.committedInstType_0::SimdAesMix            0      0.00%     68.80% # Class of committed instruction (Count)
system.cpu.commit.committedInstType_0::SimdSha1Hash            0      0.00%     68.80% # Class of committed instruction (Count)
system.cpu.commit.committedInstType_0::SimdSha1Hash2            0      0.00%     68.80% # Class of committed instruction (Count)
system.cpu.commit.committedInstType_0::SimdSha256Hash            0      0.00%     68.80% # Class of committed instruction (Count)
system.cpu.commit.committedInstType_0::SimdSha256Hash2            0      0.00%     68.80% # Class of committed instruction (Count)
system.cpu.commit.committedInstType_0::SimdShaSigma2            0      0.00%     68.80% # Class of committed instruction (Count)
system.cpu.commit.committedInstType_0::SimdShaSigma3            0      0.00%     68.80% # Class of committed instruction (Count)
system.cpu.commit.committedInstType_0::SimdSha3            0      0.00%     68.80% # Class of committed instruction (Count)
system.cpu.commit.committedInstType_0::SimdSm4e            0      0.00%     68.80% # Class of committed instruction (Count)
system.cpu.commit.committedInstType_0::SimdCrc            0      0.00%     68.80% # Class of committed instruction (Count)
system.cpu.commit.committedInstType_0::SimdPredAlu            0      0.00%     68.80% # Class of committed instruction (Count)
system.cpu.commit.committedInstType_0::SimdDotProd            0      0.00%     68.80% # Class of committed instruction (Count)
system.cpu.commit.committedInstType_0::Matrix            0      0.00%     68.80% # Class of committed instruction (Count)
system.cpu.commit.committedInstType_0::MatrixMov            0      0.00%     68.80% # Class of committed instruction (Count)
system.cpu.commit.committedInstType_0::MatrixOP            0      0.00%     68.80% # Class of committed instruction (Count)
system.cpu.commit.committedInstType_0::MemRead          504      0.01%     68.80% # Class of committed instruction (Count)
system.cpu.commit.committedInstType_0::MemWrite        33442      0.38%     69.19% # Class of committed instruction (Count)
system.cpu.commit.committedInstType_0::FloatMemRead      2097153     24.03%     93.22% # Class of committed instruction (Count)
system.cpu.commit.committedInstType_0::FloatMemWrite            0      0.00%     93.22% # Class of committed instruction (Count)
system.cpu.commit.committedInstType_0::InstPrefetch            0      0.00%     93.22% # Class of committed instruction (Count)
system.cpu.commit.committedInstType_0::SimdUnitStrideLoad       524288      6.01%     99.23% # Class of committed instruction (Count)
system.cpu.commit.committedInstType_0::SimdUnitStrideStore        24576      0.28%     99.51% # Class of committed instruction (Count)
system.cpu.commit.committedInstType_0::SimdUnitStrideMaskLoad            0      0.00%     99.51% # Class of committed instruction (Count)
system.cpu.commit.committedInstType_0::SimdUnitStrideMaskStore            0      0.00%     99.51% # Class of committed instruction (Count)
system.cpu.commit.committedInstType_0::SimdStridedLoad            0      0.00%     99.51% # Class of committed instruction (Count)
system.cpu.commit.committedInstType_0::SimdStridedStore            0      0.00%     99.51% # Class of committed instruction (Count)
system.cpu.commit.committedInstType_0::SimdIndexedLoad            0      0.00%     99.51% # Class of committed instruction (Count)
system.cpu.commit.committedInstType_0::SimdIndexedStore            0      0.00%     99.51% # Class of committed instruction (Count)
system.cpu.commit.committedInstType_0::SimdWholeRegisterLoad            0      0.00%     99.51% # Class of committed instruction (Count)
system.cpu.commit.committedInstType_0::SimdWholeRegisterStore            0      0.00%     99.51% # Class of committed instruction (Count)
system.cpu.commit.committedInstType_0::SimdUnitStrideFaultOnlyFirstLoad            0      0.00%     99.51% # Class of committed instruction (Count)
system.cpu.commit.committedInstType_0::SimdUnitStrideSegmentedLoad            0      0.00%     99.51% # Class of committed instruction (Count)
system.cpu.commit.committedInstType_0::SimdUnitStrideSegmentedStore            0      0.00%     99.51% # Class of committed instruction (Count)
system.cpu.commit.committedInstType_0::SimdUnitStrideSegmentedFaultOnlyFirstLoad            0      0.00%     99.51% # Class of committed instruction (Count)
system.cpu.commit.committedInstType_0::SimdStrideSegmentedLoad            0      0.00%     99.51% # Class of committed instruction (Count)
system.cpu.commit.committedInstType_0::SimdStrideSegmentedStore            0      0.00%     99.51% # Class of committed instruction (Count)
system.cpu.commit.committedInstType_0::SimdExt            0      0.00%     99.51% # Class of committed instruction (Count)
system.cpu.commit.committedInstType_0::SimdFloatExt            0      0.00%     99.51% # Class of committed instruction (Count)
system.cpu.commit.committedInstType_0::SimdConfig        43009      0.49%    100.00% # Class of committed instruction (Count)
system.cpu.commit.committedInstType_0::SimdBf16Add            0      0.00%    100.00% # Class of committed instruction (Count)
system.cpu.commit.committedInstType_0::SimdBf16Cmp            0      0.00%    100.00% # Class of committed instruction (Count)
system.cpu.commit.committedInstType_0::SimdBf16Cvt            0      0.00%    100.00% # Class of committed instruction (Count)
system.cpu.commit.committedInstType_0::SimdBf16DotProd            0      0.00%    100.00% # Class of committed instruction (Count)
[...]
system.mem_ctrl.dram.bytesInstRead::total         9920                       # Number of instructions bytes read from this memory (Byte)
system.mem_ctrl.dram.bytesWritten::writebacks      1271680                       # Number of bytes written to this memory (Byte)
system.mem_ctrl.dram.bytesWritten::total      1271680                       # Number of bytes written to this memory (Byte)
system.mem_ctrl.dram.numReads::cpu.inst           155                       # Number of read requests responded to by this memory (Count)
system.mem_ctrl.dram.numReads::cpu.data        541048                       # Number of read requests responded to by this memory (Count)
system.mem_ctrl.dram.numReads::total           541203                       # Number of read requests responded to by this memory (Count)
system.mem_ctrl.dram.numWrites::writebacks        19870                       # Number of write requests responded to by this memory (Count)
system.mem_ctrl.dram.numWrites::total           19870                       # Number of write requests responded to by this memory (Count)
system.mem_ctrl.dram.bwRead::cpu.inst          599131                       # Total read bandwidth from this memory ((Byte/Second))
system.mem_ctrl.dram.bwRead::cpu.data      2091347112                       # Total read bandwidth from this memory ((Byte/Second))
system.mem_ctrl.dram.bwRead::total         2091946244                       # Total read bandwidth from this memory ((Byte/Second))
system.mem_ctrl.dram.bwInstRead::cpu.inst       599131                       # Instruction read bandwidth from this memory ((Byte/Second))
system.mem_ctrl.dram.bwInstRead::total         599131                       # Instruction read bandwidth from this memory ((Byte/Second))
system.mem_ctrl.dram.bwWrite::writebacks     76804770                       # Write bandwidth from this memory ((Byte/Second))
system.mem_ctrl.dram.bwWrite::total          76804770                       # Write bandwidth from this memory ((Byte/Second))
system.mem_ctrl.dram.bwTotal::writebacks     76804770                       # Total bandwidth to/from this memory ((Byte/Second))
system.mem_ctrl.dram.bwTotal::cpu.inst         599131                       # Total bandwidth to/from this memory ((Byte/Second))
system.mem_ctrl.dram.bwTotal::cpu.data     2091347112                       # Total bandwidth to/from this memory ((Byte/Second))
system.mem_ctrl.dram.bwTotal::total        2168751014                       # Total bandwidth to/from this memory ((Byte/Second))
system.mem_ctrl.dram.readBursts                536504                       # Number of DRAM read bursts (Count)
system.mem_ctrl.dram.writeBursts                17847                       # Number of DRAM write bursts (Count)
system.mem_ctrl.dram.perBankRdBursts::0         34102                       # Per bank write bursts (Count)
system.mem_ctrl.dram.perBankRdBursts::1         34008                       # Per bank write bursts (Count)
system.mem_ctrl.dram.perBankRdBursts::2         34056                       # Per bank write bursts (Count)
system.mem_ctrl.dram.perBankRdBursts::3         33936                       # Per bank write bursts (Count)
system.mem_ctrl.dram.perBankRdBursts::4         33939                       # Per bank write bursts (Count)
system.mem_ctrl.dram.perBankRdBursts::5         33985                       # Per bank write bursts (Count)
system.mem_ctrl.dram.perBankRdBursts::6         34233                       # Per bank write bursts (Count)
system.mem_ctrl.dram.perBankRdBursts::7         26010                       # Per bank write bursts (Count)
system.mem_ctrl.dram.perBankRdBursts::8         33927                       # Per bank write bursts (Count)
system.mem_ctrl.dram.perBankRdBursts::9         34053                       # Per bank write bursts (Count)
system.mem_ctrl.dram.perBankRdBursts::10        34050                       # Per bank write bursts (Count)
system.mem_ctrl.dram.perBankRdBursts::11        34049                       # Per bank write bursts (Count)
system.mem_ctrl.dram.perBankRdBursts::12        34041                       # Per bank write bursts (Count)
system.mem_ctrl.dram.perBankRdBursts::13        34045                       # Per bank write bursts (Count)
system.mem_ctrl.dram.perBankRdBursts::14        34053                       # Per bank write bursts (Count)
system.mem_ctrl.dram.perBankRdBursts::15        34017                       # Per bank write bursts (Count)
system.mem_ctrl.dram.perBankWrBursts::0          1085                       # Per bank write bursts (Count)
system.mem_ctrl.dram.perBankWrBursts::1          1087                       # Per bank write bursts (Count)
system.mem_ctrl.dram.perBankWrBursts::2          1098                       # Per bank write bursts (Count)
system.mem_ctrl.dram.perBankWrBursts::3          1082                       # Per bank write bursts (Count)
system.mem_ctrl.dram.perBankWrBursts::4          1082                       # Per bank write bursts (Count)
system.mem_ctrl.dram.perBankWrBursts::5          1124                       # Per bank write bursts (Count)
system.mem_ctrl.dram.perBankWrBursts::6          1165                       # Per bank write bursts (Count)
system.mem_ctrl.dram.perBankWrBursts::7          1151                       # Per bank write bursts (Count)
system.mem_ctrl.dram.perBankWrBursts::8          1026                       # Per bank write bursts (Count)
system.mem_ctrl.dram.perBankWrBursts::9          1157                       # Per bank write bursts (Count)
system.mem_ctrl.dram.perBankWrBursts::10         1152                       # Per bank write bursts (Count)
system.mem_ctrl.dram.perBankWrBursts::11         1150                       # Per bank write bursts (Count)
system.mem_ctrl.dram.perBankWrBursts::12         1150                       # Per bank write bursts (Count)
system.mem_ctrl.dram.perBankWrBursts::13         1155                       # Per bank write bursts (Count)
system.mem_ctrl.dram.perBankWrBursts::14         1100                       # Per bank write bursts (Count)
system.mem_ctrl.dram.perBankWrBursts::15         1083                       # Per bank write bursts (Count)
system.mem_ctrl.dram.totQLat              14100408750                       # Total ticks spent queuing (Tick)
system.mem_ctrl.dram.totBusLat             2682520000                       # Total ticks spent in databus transfers (Tick)
system.mem_ctrl.dram.totMemAccLat         24159858750                       # Total ticks spent from burst creation until serviced by the DRAM (Tick)
system.mem_ctrl.dram.avgQLat                 26282.02                       # Average queueing delay per DRAM burst ((Tick/Count))
system.mem_ctrl.dram.avgBusLat                5000.00                       # Average bus latency per DRAM burst ((Tick/Count))
system.mem_ctrl.dram.avgMemAccLat            45032.02                       # Average memory access latency per DRAM burst ((Tick/Count))
system.mem_ctrl.dram.readRowHits               404816                       # Number of row buffer hits during reads (Count)
system.mem_ctrl.dram.writeRowHits               16062                       # Number of row buffer hits during writes (Count)
system.mem_ctrl.dram.readRowHitRate             75.45                       # Row buffer hit rate for reads (Ratio)
system.mem_ctrl.dram.writeRowHitRate            90.00                       # Row buffer hit rate for writes (Ratio)
system.mem_ctrl.dram.bytesPerActivate::samples       133466                       # Bytes accessed per row activation (Byte)
system.mem_ctrl.dram.bytesPerActivate::mean   265.812956                       # Bytes accessed per row activation (Byte)
system.mem_ctrl.dram.bytesPerActivate::gmean   259.304785                       # Bytes accessed per row activation (Byte)
system.mem_ctrl.dram.bytesPerActivate::stdev    89.204702                       # Bytes accessed per row activation (Byte)
system.mem_ctrl.dram.bytesPerActivate::0-127          556      0.42%      0.42% # Bytes accessed per row activation (Byte)
system.mem_ctrl.dram.bytesPerActivate::128-255          676      0.51%      0.92% # Bytes accessed per row activation (Byte)
system.mem_ctrl.dram.bytesPerActivate::256-383       129921     97.34%     98.27% # Bytes accessed per row activation (Byte)
system.mem_ctrl.dram.bytesPerActivate::384-511          184      0.14%     98.40% # Bytes accessed per row activation (Byte)
system.mem_ctrl.dram.bytesPerActivate::512-639          202      0.15%     98.56% # Bytes accessed per row activation (Byte)
system.mem_ctrl.dram.bytesPerActivate::640-767          118      0.09%     98.64% # Bytes accessed per row activation (Byte)
system.mem_ctrl.dram.bytesPerActivate::768-895          166      0.12%     98.77% # Bytes accessed per row activation (Byte)
system.mem_ctrl.dram.bytesPerActivate::896-1023           89      0.07%     98.84% # Bytes accessed per row activation (Byte)
system.mem_ctrl.dram.bytesPerActivate::1024-1151         1554      1.16%    100.00% # Bytes accessed per row activation (Byte)
system.mem_ctrl.dram.bytesPerActivate::total       133466                       # Bytes accessed per row activation (Byte)
system.mem_ctrl.dram.dramBytesRead           34336256                       # Total bytes read (Byte)
system.mem_ctrl.dram.dramBytesWritten         1142208                       # Total bytes written (Byte)
system.mem_ctrl.dram.avgRdBW              2073.782901                       # Average DRAM read bandwidth in MiBytes/s ((Byte/Second))
system.mem_ctrl.dram.avgWrBW                68.985140                       # Average DRAM write bandwidth in MiBytes/s ((Byte/Second))
system.mem_ctrl.dram.peakBW                  12800.00                       # Theoretical peak bandwidth in MiByte/s ((Byte/Second))
system.mem_ctrl.dram.busUtil                    16.74                       # Data bus utilization in percentage (Ratio)
system.mem_ctrl.dram.busUtilRead                16.20                       # Data bus utilization in percentage for reads (Ratio)
system.mem_ctrl.dram.busUtilWrite                0.54                       # Data bus utilization in percentage for writes (Ratio)
system.mem_ctrl.dram.pageHitRate                75.92                       # Row buffer hit rate, read and write combined (Ratio)
system.mem_ctrl.dram.power_state.pwrStateResidencyTicks::UNDEFINED  16557305000                       # Cumulative time (in ticks) in various power states (Tick)
system.mem_ctrl.dram.rank0.actEnergy        468790980                       # Energy for activate commands per rank (pJ) (Joule)
system.mem_ctrl.dram.rank0.preEnergy        249145545                       # Energy for precharge commands per rank (pJ) (Joule)
system.mem_ctrl.dram.rank0.readEnergy      1886880660                       # Energy for read commands per rank (pJ) (Joule)
system.mem_ctrl.dram.rank0.writeEnergy       46322280                       # Energy for write commands per rank (pJ) (Joule)
system.mem_ctrl.dram.rank0.refreshEnergy 1306724640.000000                       # Energy for refresh commands per rank (pJ) (Joule)
system.mem_ctrl.dram.rank0.actBackEnergy   7217017380                       # Energy for active background per rank (pJ) (Joule)
system.mem_ctrl.dram.rank0.preBackEnergy    280516800                       # Energy for precharge background per rank (pJ) (Joule)
system.mem_ctrl.dram.rank0.actPowerDownEnergy            0                       # Energy for active power-down per rank (pJ) (Joule)
system.mem_ctrl.dram.rank0.prePowerDownEnergy            0                       # Energy for precharge power-down per rank (pJ) (Joule)
system.mem_ctrl.dram.rank0.selfRefreshEnergy            0                       # Energy for self refresh per rank (pJ) (Joule)
system.mem_ctrl.dram.rank0.totalEnergy    11455398285                       # Total energy per rank (pJ) (Joule)
system.mem_ctrl.dram.rank0.averagePower    691.863699                       # Core power per rank (mW) (Watt)
system.mem_ctrl.dram.rank0.totalIdleTime            0                       # Total Idle time Per DRAM Rank (Tick)
system.mem_ctrl.dram.rank0.pwrStateTime::IDLE    669158500                       # Time in different power states (Tick)
system.mem_ctrl.dram.rank0.pwrStateTime::REF    552760000                       # Time in different power states (Tick)
system.mem_ctrl.dram.rank0.pwrStateTime::SREF            0                       # Time in different power states (Tick)
system.mem_ctrl.dram.rank0.pwrStateTime::PRE_PDN            0                       # Time in different power states (Tick)
system.mem_ctrl.dram.rank0.pwrStateTime::ACT  15335386500                       # Time in different power states (Tick)
system.mem_ctrl.dram.rank0.pwrStateTime::ACT_PDN            0                       # Time in different power states (Tick)
system.mem_ctrl.dram.rank1.actEnergy        484206240                       # Energy for activate commands per rank (pJ) (Joule)
system.mem_ctrl.dram.rank1.preEnergy        257357925                       # Energy for precharge commands per rank (pJ) (Joule)
system.mem_ctrl.dram.rank1.readEnergy      1943757900                       # Energy for read commands per rank (pJ) (Joule)
system.mem_ctrl.dram.rank1.writeEnergy       46839060                       # Energy for write commands per rank (pJ) (Joule)
system.mem_ctrl.dram.rank1.refreshEnergy 1306724640.000000                       # Energy for refresh commands per rank (pJ) (Joule)
system.mem_ctrl.dram.rank1.actBackEnergy   7246765680                       # Energy for active background per rank (pJ) (Joule)
system.mem_ctrl.dram.rank1.preBackEnergy    255465600                       # Energy for precharge background per rank (pJ) (Joule)
system.mem_ctrl.dram.rank1.actPowerDownEnergy            0                       # Energy for active power-down per rank (pJ) (Joule)
system.mem_ctrl.dram.rank1.prePowerDownEnergy            0                       # Energy for precharge power-down per rank (pJ) (Joule)
system.mem_ctrl.dram.rank1.selfRefreshEnergy            0                       # Energy for self refresh per rank (pJ) (Joule)
system.mem_ctrl.dram.rank1.totalEnergy    11541117045                       # Total energy per rank (pJ) (Joule)
system.mem_ctrl.dram.rank1.averagePower    697.040795                       # Core power per rank (mW) (Watt)
system.mem_ctrl.dram.rank1.totalIdleTime            0                       # Total Idle time Per DRAM Rank (Tick)
system.mem_ctrl.dram.rank1.pwrStateTime::IDLE    603609750                       # Time in different power states (Tick)
system.mem_ctrl.dram.rank1.pwrStateTime::REF    552760000                       # Time in different power states (Tick)
system.mem_ctrl.dram.rank1.pwrStateTime::SREF            0                       # Time in different power states (Tick)
system.mem_ctrl.dram.rank1.pwrStateTime::PRE_PDN            0                       # Time in different power states (Tick)
system.mem_ctrl.dram.rank1.pwrStateTime::ACT  15400935250                       # Time in different power states (Tick)
system.mem_ctrl.dram.rank1.pwrStateTime::ACT_PDN            0                       # Time in different power states (Tick)
system.mem_ctrl.power_state.pwrStateResidencyTicks::UNDEFINED  16557305000                       # Cumulative time (in ticks) in various power states (Tick)
system.membus.transDist::ReadResp              520646                       # Transaction distribution (Count)
system.membus.transDist::WritebackDirty         19870                       # Transaction distribution (Count)
system.membus.transDist::CleanEvict            517115                       # Transaction distribution (Count)
system.membus.transDist::ReadExReq              20557                       # Transaction distribution (Count)
system.membus.transDist::ReadExResp             20557                       # Transaction distribution (Count)
system.membus.transDist::ReadSharedReq         520646                       # Transaction distribution (Count)
system.membus.pktCount_system.l2cache.mem_side_port::system.mem_ctrl.port      1619391                       # Packet count per connected requestor and responder (Count)
system.membus.pktCount::total                 1619391                       # Packet count per connected requestor and responder (Count)
system.membus.pktSize_system.l2cache.mem_side_port::system.mem_ctrl.port     35908672                       # Cumulative packet size per connected requestor and responder (Byte)
system.membus.pktSize::total                 35908672                       # Cumulative packet size per connected requestor and responder (Byte)
system.membus.snoops                                0                       # Total snoops (Count)
system.membus.snoopTraffic                          0                       # Total snoop traffic (Byte)
system.membus.snoopFanout::samples             541203                       # Request fanout histogram (Count)
system.membus.snoopFanout::mean                     0                       # Request fanout histogram (Count)
system.membus.snoopFanout::stdev                    0                       # Request fanout histogram (Count)
system.membus.snoopFanout::underflows               0      0.00%      0.00% # Request fanout histogram (Count)
system.membus.snoopFanout::0                   541203    100.00%    100.00% # Request fanout histogram (Count)
system.membus.snoopFanout::1                        0      0.00%    100.00% # Request fanout histogram (Count)
system.membus.snoopFanout::overflows                0      0.00%    100.00% # Request fanout histogram (Count)
system.membus.snoopFanout::min_value                0                       # Request fanout histogram (Count)
system.membus.snoopFanout::max_value                0                       # Request fanout histogram (Count)
system.membus.snoopFanout::total               541203                       # Request fanout histogram (Count)
system.membus.power_state.pwrStateResidencyTicks::UNDEFINED  16557305000                       # Cumulative time (in ticks) in various power states (Tick)
system.membus.reqLayer0.occupancy          1157668000                       # Layer occupancy (ticks) (Tick)
system.membus.reqLayer0.utilization               0.1                       # Layer utilization (Ratio)
system.membus.respLayer0.occupancy         2800804500                       # Layer occupancy (ticks) (Tick)
system.membus.respLayer0.utilization              0.2                       # Layer utilization (Ratio)
system.membus.snoop_filter.totRequests        1078188                       # Total number of requests made to the snoop filter. (Count)
system.membus.snoop_filter.hitSingleRequests       536985                       # Number of requests hitting in the snoop filter with a single holder of the requested data. (Count)
system.membus.snoop_filter.hitMultiRequests            0                       # Number of requests hitting in the snoop filter with multiple (>1) holders of the requested data. (Count)
system.membus.snoop_filter.totSnoops                0                       # Total number of snoops made to the snoop filter. (Count)
system.membus.snoop_filter.hitSingleSnoops            0                       # Number of snoops hitting in the snoop filter with a single holder of the requested data. (Count)
system.membus.snoop_filter.hitMultiSnoops            0                       # Number of snoops hitting in the snoop filter with multiple (>1) holders of the requested data. (Count)
system.workload.inst.arm                            0                       # number of arm instructions executed (Count)
system.workload.inst.quiesce                        0                       # number of quiesce instructions executed (Count)

---------- End Simulation Statistics   ----------
